/*---------------------------------------------------------------------------*\
| =========                 |                                                 |
| \\      /  F ield         | OpenFOAM: The Open Source CFD Toolbox           |
|  \\    /   O peration     | Version:  2.3.x                                 |
|   \\  /    A nd           | Web:      www.OpenFOAM.org                      |
|    \\/     M anipulation  |                                                 |
\*---------------------------------------------------------------------------*/
Build  : 2.3.x-e461dd8f9394
Exec   : buoyantSimpleFoam
Date   : Jun 26 2014
Time   : 16:28:52
Host   : "fermat"
PID    : 8817
Case   : /home/gregor/code/OFTools/FoamAna/examples/buoyantCavity
nProcs : 1
sigFpe : Enabling floating point exception trapping (FOAM_SIGFPE).
fileModificationChecking : Monitoring run-time modified files using timeStampMaster
allowSystemOperations : Disallowing user-supplied system call operations

// * * * * * * * * * * * * * * * * * * * * * * * * * * * * * * * * * * * * * //
Create time

Create mesh for time = 0


Reading g
Reading thermophysical properties

Selecting thermodynamics package 
{
    type            heRhoThermo;
    mixture         pureMixture;
    transport       const;
    thermo          hConst;
    equationOfState perfectGas;
    specie          specie;
    energy          sensibleEnthalpy;
}

Reading field U

Reading/calculating face flux field phi

Creating turbulence model

Selecting RAS turbulence model kOmegaSST
kOmegaSSTCoeffs
{
    alphaK1         0.85034;
    alphaK2         1;
    alphaOmega1     0.5;
    alphaOmega2     0.85616;
    Prt             1;
    gamma1          0.5532;
    gamma2          0.4403;
    beta1           0.075;
    beta2           0.0828;
    betaStar        0.09;
    a1              0.31;
    b1              1;
    c1              10;
    F3              false;
}

Calculating field g.h

Reading field p_rgh

No finite volume options present

Radiation model not active: radiationProperties not found
Selecting radiationModel none

SIMPLE: convergence criteria
    field p_rgh	 tolerance 0.0001
    field U	 tolerance 0.0001
    field h	 tolerance 0.0001
    field "(k|epsilon|omega)"	 tolerance 0.001


Starting time loop

Time = 1

DILUPBiCG:  Solving for h, Initial residual = 0.999999, Final residual = 0.00181416, No Iterations 1
GAMG:  Solving for p_rgh, Initial residual = 0.377147, Final residual = 0.00351308, No Iterations 40
time step continuity errors : sum local = 0.000134467, global = 1.70767e-19, cumulative = 1.70767e-19
rho max/min : 1.20877 1.13179
DILUPBiCG:  Solving for omega, Initial residual = 0.142931, Final residual = 0.00139764, No Iterations 1
DILUPBiCG:  Solving for k, Initial residual = 1, Final residual = 0.0161306, No Iterations 1
ExecutionTime = 2.02 s  ClockTime = 2 s

Time = 2

DILUPBiCG:  Solving for h, Initial residual = 0.614838, Final residual = 0.000342196, No Iterations 1
GAMG:  Solving for p_rgh, Initial residual = 0.96258, Final residual = 0.00103114, No Iterations 1
time step continuity errors : sum local = 0.0607828, global = -1.18545e-17, cumulative = -1.16838e-17
rho max/min : 1.20888 1.1317
DILUPBiCG:  Solving for omega, Initial residual = 0.0220789, Final residual = 0.00023354, No Iterations 1
DILUPBiCG:  Solving for k, Initial residual = 0.466102, Final residual = 0.00614718, No Iterations 1
ExecutionTime = 2.35 s  ClockTime = 2 s

Time = 3

DILUPBiCG:  Solving for h, Initial residual = 0.0362699, Final residual = 0.000193776, No Iterations 1
GAMG:  Solving for p_rgh, Initial residual = 0.433749, Final residual = 0.0012717, No Iterations 1
time step continuity errors : sum local = 0.13283, global = -1.68558e-17, cumulative = -2.85395e-17
rho max/min : 1.20914 1.13194
DILUPBiCG:  Solving for omega, Initial residual = 0.00642265, Final residual = 0.000152725, No Iterations 1
DILUPBiCG:  Solving for k, Initial residual = 0.367067, Final residual = 0.0041069, No Iterations 1
ExecutionTime = 2.68 s  ClockTime = 3 s

Time = 4

DILUPBiCG:  Solving for h, Initial residual = 0.0259716, Final residual = 0.000159422, No Iterations 1
GAMG:  Solving for p_rgh, Initial residual = 0.21437, Final residual = 0.00150821, No Iterations 1
time step continuity errors : sum local = 0.161683, global = 1.34606e-16, cumulative = 1.06067e-16
rho max/min : 1.20932 1.1321
DILUPBiCG:  Solving for omega, Initial residual = 0.00501572, Final residual = 0.000158224, No Iterations 1
DILUPBiCG:  Solving for k, Initial residual = 0.147212, Final residual = 0.00214832, No Iterations 1
ExecutionTime = 3 s  ClockTime = 3 s

Time = 5

DILUPBiCG:  Solving for h, Initial residual = 0.0245669, Final residual = 0.000159571, No Iterations 1
GAMG:  Solving for p_rgh, Initial residual = 0.0900031, Final residual = 0.000864278, No Iterations 8
time step continuity errors : sum local = 0.0952317, global = 7.76492e-17, cumulative = 1.83716e-16
rho max/min : 1.20945 1.13222
DILUPBiCG:  Solving for omega, Initial residual = 0.00509116, Final residual = 0.000160545, No Iterations 1
DILUPBiCG:  Solving for k, Initial residual = 0.0758204, Final residual = 0.00149834, No Iterations 1
ExecutionTime = 3.51 s  ClockTime = 3 s

Time = 6

DILUPBiCG:  Solving for h, Initial residual = 0.0265562, Final residual = 0.000166099, No Iterations 1
GAMG:  Solving for p_rgh, Initial residual = 0.0319549, Final residual = 0.000308189, No Iterations 12
time step continuity errors : sum local = 0.0475736, global = -1.01266e-17, cumulative = 1.7359e-16
rho max/min : 1.20965 1.13224
DILUPBiCG:  Solving for omega, Initial residual = 0.0037398, Final residual = 0.00011199, No Iterations 1
DILUPBiCG:  Solving for k, Initial residual = 0.250298, Final residual = 0.00170972, No Iterations 1
ExecutionTime = 4.12 s  ClockTime = 4 s

Time = 7

DILUPBiCG:  Solving for h, Initial residual = 0.0334403, Final residual = 0.000187713, No Iterations 1
GAMG:  Solving for p_rgh, Initial residual = 0.0289672, Final residual = 0.00028277, No Iterations 7
time step continuity errors : sum local = 0.0524969, global = 2.46824e-17, cumulative = 1.98272e-16
rho max/min : 1.20977 1.13233
DILUPBiCG:  Solving for omega, Initial residual = 0.00274595, Final residual = 9.11509e-05, No Iterations 1
DILUPBiCG:  Solving for k, Initial residual = 0.322854, Final residual = 0.00294184, No Iterations 1
ExecutionTime = 4.61 s  ClockTime = 4 s

Time = 8

DILUPBiCG:  Solving for h, Initial residual = 0.0318984, Final residual = 0.000168352, No Iterations 1
GAMG:  Solving for p_rgh, Initial residual = 0.0353538, Final residual = 0.000293701, No Iterations 3
time step continuity errors : sum local = 0.0667758, global = 1.49048e-17, cumulative = 2.13177e-16
rho max/min : 1.20987 1.13245
DILUPBiCG:  Solving for omega, Initial residual = 0.00205484, Final residual = 8.29232e-05, No Iterations 1
DILUPBiCG:  Solving for k, Initial residual = 0.150163, Final residual = 0.00263711, No Iterations 1
ExecutionTime = 5 s  ClockTime = 5 s

Time = 9

DILUPBiCG:  Solving for h, Initial residual = 0.0273988, Final residual = 0.00139738, No Iterations 1
GAMG:  Solving for p_rgh, Initial residual = 0.0370605, Final residual = 0.000345408, No Iterations 4
time step continuity errors : sum local = 0.0757974, global = 6.30892e-17, cumulative = 2.76266e-16
rho max/min : 1.20996 1.13258
DILUPBiCG:  Solving for omega, Initial residual = 0.0017535, Final residual = 7.98041e-05, No Iterations 1
DILUPBiCG:  Solving for k, Initial residual = 0.071713, Final residual = 0.00250878, No Iterations 1
ExecutionTime = 5.41 s  ClockTime = 5 s

Time = 10

DILUPBiCG:  Solving for h, Initial residual = 0.0232394, Final residual = 0.000102272, No Iterations 1
GAMG:  Solving for p_rgh, Initial residual = 0.0454268, Final residual = 0.000407062, No Iterations 8
time step continuity errors : sum local = 0.0949311, global = -1.3462e-17, cumulative = 2.62804e-16
rho max/min : 1.21004 1.13267
DILUPBiCG:  Solving for omega, Initial residual = 0.00132514, Final residual = 5.32591e-05, No Iterations 1
DILUPBiCG:  Solving for k, Initial residual = 0.0632849, Final residual = 0.00224614, No Iterations 1
ExecutionTime = 5.94 s  ClockTime = 6 s

Time = 11

DILUPBiCG:  Solving for h, Initial residual = 0.0203783, Final residual = 9.43709e-05, No Iterations 1
GAMG:  Solving for p_rgh, Initial residual = 0.0418159, Final residual = 0.000295806, No Iterations 2
time step continuity errors : sum local = 0.0674158, global = -7.8351e-17, cumulative = 1.84453e-16
rho max/min : 1.21012 1.13278
DILUPBiCG:  Solving for omega, Initial residual = 0.00098498, Final residual = 3.66933e-05, No Iterations 1
DILUPBiCG:  Solving for k, Initial residual = 0.0503904, Final residual = 0.00189685, No Iterations 1
bounding k, min: -4.01434e-06 max: 0.00142122 average: 0.000464696
ExecutionTime = 6.31 s  ClockTime = 6 s

Time = 12

DILUPBiCG:  Solving for h, Initial residual = 0.0179306, Final residual = 8.274e-05, No Iterations 1
GAMG:  Solving for p_rgh, Initial residual = 0.0377354, Final residual = 0.000323595, No Iterations 2
time step continuity errors : sum local = 0.0760846, global = 1.15973e-16, cumulative = 3.00426e-16
rho max/min : 1.21022 1.13287
DILUPBiCG:  Solving for omega, Initial residual = 0.00087159, Final residual = 2.88403e-05, No Iterations 1
DILUPBiCG:  Solving for k, Initial residual = 0.0398435, Final residual = 0.0013923, No Iterations 1
ExecutionTime = 6.68 s  ClockTime = 7 s

Time = 13

DILUPBiCG:  Solving for h, Initial residual = 0.0158832, Final residual = 7.74958e-05, No Iterations 1
GAMG:  Solving for p_rgh, Initial residual = 0.0325014, Final residual = 0.000308794, No Iterations 1
time step continuity errors : sum local = 0.0693321, global = 7.05028e-17, cumulative = 3.70929e-16
rho max/min : 1.21031 1.13295
DILUPBiCG:  Solving for omega, Initial residual = 0.000824555, Final residual = 2.55186e-05, No Iterations 1
DILUPBiCG:  Solving for k, Initial residual = 0.0331052, Final residual = 0.00112918, No Iterations 1
ExecutionTime = 7.02 s  ClockTime = 7 s

Time = 14

DILUPBiCG:  Solving for h, Initial residual = 0.0147503, Final residual = 7.55016e-05, No Iterations 1
GAMG:  Solving for p_rgh, Initial residual = 0.0292482, Final residual = 0.000198791, No Iterations 2
time step continuity errors : sum local = 0.0423677, global = 6.70157e-17, cumulative = 4.37944e-16
rho max/min : 1.21039 1.13302
DILUPBiCG:  Solving for omega, Initial residual = 0.000678075, Final residual = 2.16266e-05, No Iterations 1
DILUPBiCG:  Solving for k, Initial residual = 0.028042, Final residual = 0.000928516, No Iterations 1
ExecutionTime = 7.38 s  ClockTime = 7 s

Time = 15

DILUPBiCG:  Solving for h, Initial residual = 0.0128387, Final residual = 0.000260731, No Iterations 1
GAMG:  Solving for p_rgh, Initial residual = 0.0247342, Final residual = 0.000124643, No Iterations 3
time step continuity errors : sum local = 0.0252382, global = -2.08689e-17, cumulative = 4.17075e-16
rho max/min : 1.21046 1.1331
DILUPBiCG:  Solving for omega, Initial residual = 0.000626116, Final residual = 1.98051e-05, No Iterations 1
DILUPBiCG:  Solving for k, Initial residual = 0.0248207, Final residual = 0.00079036, No Iterations 1
ExecutionTime = 7.77 s  ClockTime = 8 s

Time = 16

DILUPBiCG:  Solving for h, Initial residual = 0.0117288, Final residual = 6.84787e-05, No Iterations 1
GAMG:  Solving for p_rgh, Initial residual = 0.0223656, Final residual = 0.000216418, No Iterations 1
time step continuity errors : sum local = 0.0424585, global = -1.28617e-17, cumulative = 4.04214e-16
rho max/min : 1.21053 1.13316
DILUPBiCG:  Solving for omega, Initial residual = 0.000565536, Final residual = 1.87614e-05, No Iterations 1
DILUPBiCG:  Solving for k, Initial residual = 0.0242425, Final residual = 0.000716725, No Iterations 1
ExecutionTime = 8.12 s  ClockTime = 8 s

Time = 17

DILUPBiCG:  Solving for h, Initial residual = 0.0110871, Final residual = 6.54319e-05, No Iterations 1
GAMG:  Solving for p_rgh, Initial residual = 0.0223896, Final residual = 0.000129763, No Iterations 2
time step continuity errors : sum local = 0.0242829, global = 2.04752e-18, cumulative = 4.06261e-16
rho max/min : 1.21059 1.13322
DILUPBiCG:  Solving for omega, Initial residual = 0.000555586, Final residual = 1.75057e-05, No Iterations 1
DILUPBiCG:  Solving for k, Initial residual = 0.0236932, Final residual = 0.000596305, No Iterations 1
ExecutionTime = 8.49 s  ClockTime = 8 s

Time = 18

DILUPBiCG:  Solving for h, Initial residual = 0.0098606, Final residual = 8.44796e-05, No Iterations 1
GAMG:  Solving for p_rgh, Initial residual = 0.021493, Final residual = 0.000178917, No Iterations 3
time step continuity errors : sum local = 0.0338587, global = 2.29532e-17, cumulative = 4.29215e-16
rho max/min : 1.21066 1.13329
DILUPBiCG:  Solving for omega, Initial residual = 0.00057061, Final residual = 1.65307e-05, No Iterations 1
DILUPBiCG:  Solving for k, Initial residual = 0.0175726, Final residual = 0.000467004, No Iterations 1
ExecutionTime = 8.88 s  ClockTime = 9 s

Time = 19

DILUPBiCG:  Solving for h, Initial residual = 0.00942032, Final residual = 0.000106861, No Iterations 1
GAMG:  Solving for p_rgh, Initial residual = 0.0212158, Final residual = 0.000177095, No Iterations 2
time step continuity errors : sum local = 0.0326157, global = -3.7643e-17, cumulative = 3.91572e-16
rho max/min : 1.21073 1.13333
DILUPBiCG:  Solving for omega, Initial residual = 0.000431116, Final residual = 1.25764e-05, No Iterations 1
DILUPBiCG:  Solving for k, Initial residual = 0.0149653, Final residual = 0.000398408, No Iterations 1
ExecutionTime = 9.25 s  ClockTime = 9 s

Time = 20

DILUPBiCG:  Solving for h, Initial residual = 0.00868693, Final residual = 5.29087e-05, No Iterations 1
GAMG:  Solving for p_rgh, Initial residual = 0.0206439, Final residual = 0.000157009, No Iterations 3
time step continuity errors : sum local = 0.0289518, global = -3.50377e-17, cumulative = 3.56534e-16
rho max/min : 1.21079 1.13339
DILUPBiCG:  Solving for omega, Initial residual = 0.000400476, Final residual = 1.15602e-05, No Iterations 1
DILUPBiCG:  Solving for k, Initial residual = 0.0131576, Final residual = 0.000356895, No Iterations 1
ExecutionTime = 9.64 s  ClockTime = 9 s

Time = 21

DILUPBiCG:  Solving for h, Initial residual = 0.00843285, Final residual = 5.53555e-05, No Iterations 1
GAMG:  Solving for p_rgh, Initial residual = 0.0205397, Final residual = 0.000203973, No Iterations 1
time step continuity errors : sum local = 0.0372312, global = 1.56373e-17, cumulative = 3.72171e-16
rho max/min : 1.21084 1.13344
DILUPBiCG:  Solving for omega, Initial residual = 0.000385482, Final residual = 1.1648e-05, No Iterations 1
DILUPBiCG:  Solving for k, Initial residual = 0.0136947, Final residual = 0.000346879, No Iterations 1
ExecutionTime = 9.98 s  ClockTime = 10 s

Time = 22

DILUPBiCG:  Solving for h, Initial residual = 0.0082759, Final residual = 4.73368e-05, No Iterations 1
GAMG:  Solving for p_rgh, Initial residual = 0.0215434, Final residual = 0.000143557, No Iterations 3
time step continuity errors : sum local = 0.0260394, global = 3.15596e-18, cumulative = 3.75327e-16
rho max/min : 1.21131 1.13349
DILUPBiCG:  Solving for omega, Initial residual = 0.000398219, Final residual = 1.1981e-05, No Iterations 1
DILUPBiCG:  Solving for k, Initial residual = 0.0136398, Final residual = 0.000306866, No Iterations 1
ExecutionTime = 10.37 s  ClockTime = 10 s

Time = 23

DILUPBiCG:  Solving for h, Initial residual = 0.007704, Final residual = 4.2778e-05, No Iterations 1
GAMG:  Solving for p_rgh, Initial residual = 0.0209554, Final residual = 8.38343e-05, No Iterations 2
time step continuity errors : sum local = 0.0150859, global = -1.74364e-17, cumulative = 3.57891e-16
rho max/min : 1.21096 1.13355
DILUPBiCG:  Solving for omega, Initial residual = 0.000431178, Final residual = 1.33108e-05, No Iterations 1
DILUPBiCG:  Solving for k, Initial residual = 0.012908, Final residual = 0.000263642, No Iterations 1
ExecutionTime = 10.74 s  ClockTime = 11 s

Time = 24

DILUPBiCG:  Solving for h, Initial residual = 0.00725428, Final residual = 4.69039e-05, No Iterations 1
GAMG:  Solving for p_rgh, Initial residual = 0.0200453, Final residual = 0.000140644, No Iterations 1
time step continuity errors : sum local = 0.0253952, global = -1.97321e-17, cumulative = 3.38159e-16
rho max/min : 1.21102 1.1336
DILUPBiCG:  Solving for omega, Initial residual = 0.000440512, Final residual = 1.32393e-05, No Iterations 1
DILUPBiCG:  Solving for k, Initial residual = 0.0132694, Final residual = 0.000283064, No Iterations 1
ExecutionTime = 11.08 s  ClockTime = 11 s

Time = 25

DILUPBiCG:  Solving for h, Initial residual = 0.00726628, Final residual = 3.67196e-05, No Iterations 1
GAMG:  Solving for p_rgh, Initial residual = 0.020818, Final residual = 0.000179079, No Iterations 1
time step continuity errors : sum local = 0.0326323, global = -3.26749e-17, cumulative = 3.05484e-16
rho max/min : 1.21107 1.13365
DILUPBiCG:  Solving for omega, Initial residual = 0.000376076, Final residual = 1.15107e-05, No Iterations 1
DILUPBiCG:  Solving for k, Initial residual = 0.0132884, Final residual = 0.000291003, No Iterations 1
ExecutionTime = 11.42 s  ClockTime = 11 s

Time = 26

DILUPBiCG:  Solving for h, Initial residual = 0.00705485, Final residual = 3.53044e-05, No Iterations 1
GAMG:  Solving for p_rgh, Initial residual = 0.0212549, Final residual = 6.2761e-05, No Iterations 2
time step continuity errors : sum local = 0.0112296, global = 3.69326e-17, cumulative = 3.42416e-16
rho max/min : 1.21113 1.1337
DILUPBiCG:  Solving for omega, Initial residual = 0.000355964, Final residual = 1.08669e-05, No Iterations 1
DILUPBiCG:  Solving for k, Initial residual = 0.0128352, Final residual = 0.000286588, No Iterations 1
ExecutionTime = 11.79 s  ClockTime = 12 s

Time = 27

DILUPBiCG:  Solving for h, Initial residual = 0.00642647, Final residual = 3.06663e-05, No Iterations 1
GAMG:  Solving for p_rgh, Initial residual = 0.019262, Final residual = 0.000189431, No Iterations 1
time step continuity errors : sum local = 0.0316227, global = 1.43542e-18, cumulative = 3.43852e-16
rho max/min : 1.21119 1.13376
DILUPBiCG:  Solving for omega, Initial residual = 0.000376692, Final residual = 1.08428e-05, No Iterations 1
DILUPBiCG:  Solving for k, Initial residual = 0.0128239, Final residual = 0.00030508, No Iterations 1
ExecutionTime = 12.13 s  ClockTime = 12 s

Time = 28

DILUPBiCG:  Solving for h, Initial residual = 0.00641569, Final residual = 2.86723e-05, No Iterations 1
GAMG:  Solving for p_rgh, Initial residual = 0.0191309, Final residual = 9.48476e-05, No Iterations 3
time step continuity errors : sum local = 0.0154515, global = -3.31462e-17, cumulative = 3.10706e-16
rho max/min : 1.21124 1.13381
DILUPBiCG:  Solving for omega, Initial residual = 0.000327378, Final residual = 9.53265e-06, No Iterations 1
DILUPBiCG:  Solving for k, Initial residual = 0.0113979, Final residual = 0.000283674, No Iterations 1
ExecutionTime = 12.51 s  ClockTime = 12 s

Time = 29

DILUPBiCG:  Solving for h, Initial residual = 0.00594136, Final residual = 4.17016e-05, No Iterations 1
GAMG:  Solving for p_rgh, Initial residual = 0.0179552, Final residual = 9.94752e-05, No Iterations 3
time step continuity errors : sum local = 0.0165054, global = -3.16088e-18, cumulative = 3.07545e-16
rho max/min : 1.21129 1.13386
DILUPBiCG:  Solving for omega, Initial residual = 0.000300495, Final residual = 8.14688e-06, No Iterations 1
DILUPBiCG:  Solving for k, Initial residual = 0.00878897, Final residual = 0.000230555, No Iterations 1
ExecutionTime = 12.9 s  ClockTime = 13 s

Time = 30

DILUPBiCG:  Solving for h, Initial residual = 0.0056896, Final residual = 2.64102e-05, No Iterations 1
GAMG:  Solving for p_rgh, Initial residual = 0.0164435, Final residual = 0.000151883, No Iterations 1
time step continuity errors : sum local = 0.0239602, global = 7.78766e-17, cumulative = 3.85421e-16
rho max/min : 1.21134 1.13391
DILUPBiCG:  Solving for omega, Initial residual = 0.000292524, Final residual = 7.95442e-06, No Iterations 1
DILUPBiCG:  Solving for k, Initial residual = 0.00806129, Final residual = 0.000210451, No Iterations 1
ExecutionTime = 13.24 s  ClockTime = 13 s

Time = 31

DILUPBiCG:  Solving for h, Initial residual = 0.00569865, Final residual = 2.492e-05, No Iterations 1
GAMG:  Solving for p_rgh, Initial residual = 0.016469, Final residual = 9.49409e-05, No Iterations 2
time step continuity errors : sum local = 0.0142829, global = 4.97728e-18, cumulative = 3.90399e-16
rho max/min : 1.21139 1.13395
DILUPBiCG:  Solving for omega, Initial residual = 0.000252493, Final residual = 6.87877e-06, No Iterations 1
DILUPBiCG:  Solving for k, Initial residual = 0.00784091, Final residual = 0.000197733, No Iterations 1
ExecutionTime = 13.62 s  ClockTime = 13 s

Time = 32

DILUPBiCG:  Solving for h, Initial residual = 0.00531919, Final residual = 2.18386e-05, No Iterations 1
GAMG:  Solving for p_rgh, Initial residual = 0.0153434, Final residual = 0.000106906, No Iterations 3
time step continuity errors : sum local = 0.0157512, global = 1.04216e-18, cumulative = 3.91441e-16
rho max/min : 1.21144 1.134
DILUPBiCG:  Solving for omega, Initial residual = 0.000241217, Final residual = 6.3655e-06, No Iterations 1
DILUPBiCG:  Solving for k, Initial residual = 0.00875224, Final residual = 0.000204745, No Iterations 1
ExecutionTime = 14.04 s  ClockTime = 14 s

Time = 33

DILUPBiCG:  Solving for h, Initial residual = 0.00512075, Final residual = 2.11197e-05, No Iterations 1
GAMG:  Solving for p_rgh, Initial residual = 0.0141452, Final residual = 0.000111888, No Iterations 1
time step continuity errors : sum local = 0.0165484, global = 4.00164e-18, cumulative = 3.95442e-16
rho max/min : 1.21148 1.13404
DILUPBiCG:  Solving for omega, Initial residual = 0.00021968, Final residual = 5.75028e-06, No Iterations 1
DILUPBiCG:  Solving for k, Initial residual = 0.00971407, Final residual = 0.000213291, No Iterations 1
ExecutionTime = 14.41 s  ClockTime = 14 s

Time = 34

DILUPBiCG:  Solving for h, Initial residual = 0.00520868, Final residual = 2.18929e-05, No Iterations 1
GAMG:  Solving for p_rgh, Initial residual = 0.0144615, Final residual = 3.88975e-05, No Iterations 2
time step continuity errors : sum local = 0.00602635, global = -1.241e-17, cumulative = 3.83032e-16
rho max/min : 1.21152 1.13408
DILUPBiCG:  Solving for omega, Initial residual = 0.000181954, Final residual = 6.85129e-06, No Iterations 1
DILUPBiCG:  Solving for k, Initial residual = 0.00993529, Final residual = 0.000206668, No Iterations 1
ExecutionTime = 14.81 s  ClockTime = 15 s

Time = 35

DILUPBiCG:  Solving for h, Initial residual = 0.00494631, Final residual = 4.07235e-05, No Iterations 1
GAMG:  Solving for p_rgh, Initial residual = 0.0139587, Final residual = 3.89292e-05, No Iterations 2
time step continuity errors : sum local = 0.00600097, global = -1.051e-17, cumulative = 3.72522e-16
rho max/min : 1.21207 1.13413
DILUPBiCG:  Solving for omega, Initial residual = 0.000168398, Final residual = 7.62258e-06, No Iterations 1
DILUPBiCG:  Solving for k, Initial residual = 0.0100016, Final residual = 0.000201246, No Iterations 1
ExecutionTime = 15.21 s  ClockTime = 15 s

Time = 36

DILUPBiCG:  Solving for h, Initial residual = 0.004813, Final residual = 1.87319e-05, No Iterations 1
GAMG:  Solving for p_rgh, Initial residual = 0.0133488, Final residual = 4.33416e-05, No Iterations 2
time step continuity errors : sum local = 0.0063987, global = -1.03921e-17, cumulative = 3.6213e-16
rho max/min : 1.21162 1.13417
DILUPBiCG:  Solving for omega, Initial residual = 0.000164424, Final residual = 4.18641e-06, No Iterations 1
DILUPBiCG:  Solving for k, Initial residual = 0.00984317, Final residual = 0.00019276, No Iterations 1
ExecutionTime = 15.61 s  ClockTime = 15 s

Time = 37

DILUPBiCG:  Solving for h, Initial residual = 0.00465031, Final residual = 1.98096e-05, No Iterations 1
GAMG:  Solving for p_rgh, Initial residual = 0.0126987, Final residual = 6.57392e-05, No Iterations 3
time step continuity errors : sum local = 0.00937162, global = 3.2061e-17, cumulative = 3.94191e-16
rho max/min : 1.21166 1.13421
DILUPBiCG:  Solving for omega, Initial residual = 0.000158822, Final residual = 7.36567e-06, No Iterations 1
DILUPBiCG:  Solving for k, Initial residual = 0.00912526, Final residual = 0.000179712, No Iterations 1
ExecutionTime = 16.03 s  ClockTime = 16 s

Time = 38

DILUPBiCG:  Solving for h, Initial residual = 0.0045501, Final residual = 1.91731e-05, No Iterations 1
GAMG:  Solving for p_rgh, Initial residual = 0.0123847, Final residual = 0.000111048, No Iterations 2
time step continuity errors : sum local = 0.0158017, global = 3.26559e-17, cumulative = 4.26847e-16
rho max/min : 1.2117 1.13425
DILUPBiCG:  Solving for omega, Initial residual = 0.000188984, Final residual = 4.9862e-06, No Iterations 1
DILUPBiCG:  Solving for k, Initial residual = 0.00817527, Final residual = 0.000160092, No Iterations 1
ExecutionTime = 16.43 s  ClockTime = 16 s

Time = 39

DILUPBiCG:  Solving for h, Initial residual = 0.00433134, Final residual = 1.67834e-05, No Iterations 1
GAMG:  Solving for p_rgh, Initial residual = 0.0116457, Final residual = 0.000114724, No Iterations 2
time step continuity errors : sum local = 0.0167259, global = -1.14908e-17, cumulative = 4.15356e-16
rho max/min : 1.2119 1.13429
DILUPBiCG:  Solving for omega, Initial residual = 0.000180649, Final residual = 4.86511e-06, No Iterations 1
DILUPBiCG:  Solving for k, Initial residual = 0.00765704, Final residual = 0.000148433, No Iterations 1
ExecutionTime = 16.83 s  ClockTime = 17 s

Time = 40

DILUPBiCG:  Solving for h, Initial residual = 0.00423812, Final residual = 1.91852e-05, No Iterations 1
GAMG:  Solving for p_rgh, Initial residual = 0.0111755, Final residual = 6.60839e-05, No Iterations 2
time step continuity errors : sum local = 0.00893704, global = -3.31253e-17, cumulative = 3.82231e-16
rho max/min : 1.21179 1.13433
DILUPBiCG:  Solving for omega, Initial residual = 0.000182601, Final residual = 4.64756e-06, No Iterations 1
DILUPBiCG:  Solving for k, Initial residual = 0.00770419, Final residual = 0.000146958, No Iterations 1
ExecutionTime = 17.22 s  ClockTime = 17 s

Time = 41

DILUPBiCG:  Solving for h, Initial residual = 0.00418494, Final residual = 2.44718e-05, No Iterations 1
GAMG:  Solving for p_rgh, Initial residual = 0.0111891, Final residual = 6.44722e-05, No Iterations 3
time step continuity errors : sum local = 0.00860863, global = -6.03725e-18, cumulative = 3.76194e-16
rho max/min : 1.21183 1.13436
DILUPBiCG:  Solving for omega, Initial residual = 0.000192231, Final residual = 4.99006e-06, No Iterations 1
DILUPBiCG:  Solving for k, Initial residual = 0.00889055, Final residual = 0.000170955, No Iterations 1
ExecutionTime = 17.64 s  ClockTime = 17 s

Time = 42

DILUPBiCG:  Solving for h, Initial residual = 0.00411466, Final residual = 1.73192e-05, No Iterations 1
GAMG:  Solving for p_rgh, Initial residual = 0.01139, Final residual = 5.95626e-05, No Iterations 2
time step continuity errors : sum local = 0.00769096, global = -1.9157e-17, cumulative = 3.57037e-16
rho max/min : 1.21187 1.1344
DILUPBiCG:  Solving for omega, Initial residual = 0.000225371, Final residual = 5.20511e-06, No Iterations 1
DILUPBiCG:  Solving for k, Initial residual = 0.00990435, Final residual = 0.00019109, No Iterations 1
ExecutionTime = 18.04 s  ClockTime = 18 s

Time = 43

DILUPBiCG:  Solving for h, Initial residual = 0.00397442, Final residual = 2.23629e-05, No Iterations 1
GAMG:  Solving for p_rgh, Initial residual = 0.0112009, Final residual = 3.77564e-05, No Iterations 3
time step continuity errors : sum local = 0.00477247, global = 1.2842e-17, cumulative = 3.69879e-16
rho max/min : 1.21191 1.13444
DILUPBiCG:  Solving for omega, Initial residual = 0.000241301, Final residual = 5.57261e-06, No Iterations 1
DILUPBiCG:  Solving for k, Initial residual = 0.0114297, Final residual = 0.000217894, No Iterations 1
ExecutionTime = 18.46 s  ClockTime = 18 s

Time = 44

DILUPBiCG:  Solving for h, Initial residual = 0.00390404, Final residual = 1.95011e-05, No Iterations 1
GAMG:  Solving for p_rgh, Initial residual = 0.011132, Final residual = 2.66477e-05, No Iterations 2
time step continuity errors : sum local = 0.00325211, global = 3.79527e-17, cumulative = 4.07831e-16
rho max/min : 1.21195 1.13447
DILUPBiCG:  Solving for omega, Initial residual = 0.000244623, Final residual = 5.67028e-06, No Iterations 1
DILUPBiCG:  Solving for k, Initial residual = 0.0124315, Final residual = 0.000236164, No Iterations 1
ExecutionTime = 18.85 s  ClockTime = 19 s

Time = 45

DILUPBiCG:  Solving for h, Initial residual = 0.0038179, Final residual = 2.23417e-05, No Iterations 1
GAMG:  Solving for p_rgh, Initial residual = 0.0109206, Final residual = 3.77887e-05, No Iterations 2
time step continuity errors : sum local = 0.00453251, global = 8.41099e-18, cumulative = 4.16242e-16
rho max/min : 1.21198 1.13451
DILUPBiCG:  Solving for omega, Initial residual = 0.000219932, Final residual = 5.46382e-06, No Iterations 1
DILUPBiCG:  Solving for k, Initial residual = 0.0130041, Final residual = 0.000245902, No Iterations 1
ExecutionTime = 19.22 s  ClockTime = 19 s

Time = 46

DILUPBiCG:  Solving for h, Initial residual = 0.00376036, Final residual = 1.60127e-05, No Iterations 1
GAMG:  Solving for p_rgh, Initial residual = 0.0107895, Final residual = 4.67079e-05, No Iterations 2
time step continuity errors : sum local = 0.00549556, global = -2.61276e-18, cumulative = 4.1363e-16
rho max/min : 1.21202 1.13454
DILUPBiCG:  Solving for omega, Initial residual = 0.000188666, Final residual = 4.95666e-06, No Iterations 1
DILUPBiCG:  Solving for k, Initial residual = 0.0133306, Final residual = 0.000252977, No Iterations 1
ExecutionTime = 19.63 s  ClockTime = 19 s

Time = 47

DILUPBiCG:  Solving for h, Initial residual = 0.00368538, Final residual = 1.56224e-05, No Iterations 1
GAMG:  Solving for p_rgh, Initial residual = 0.0106581, Final residual = 4.06099e-05, No Iterations 2
time step continuity errors : sum local = 0.00467972, global = -6.07232e-18, cumulative = 4.07557e-16
rho max/min : 1.21206 1.13458
DILUPBiCG:  Solving for omega, Initial residual = 0.000178563, Final residual = 7.46379e-06, No Iterations 1
DILUPBiCG:  Solving for k, Initial residual = 0.0134497, Final residual = 0.000256759, No Iterations 1
ExecutionTime = 20.02 s  ClockTime = 20 s

Time = 48

DILUPBiCG:  Solving for h, Initial residual = 0.00359835, Final residual = 1.73544e-05, No Iterations 1
GAMG:  Solving for p_rgh, Initial residual = 0.0103225, Final residual = 7.00603e-05, No Iterations 2
time step continuity errors : sum local = 0.00799671, global = 2.23179e-17, cumulative = 4.29875e-16
rho max/min : 1.21209 1.13461
DILUPBiCG:  Solving for omega, Initial residual = 0.000178351, Final residual = 5.27788e-06, No Iterations 1
DILUPBiCG:  Solving for k, Initial residual = 0.0133301, Final residual = 0.000258074, No Iterations 1
ExecutionTime = 20.42 s  ClockTime = 20 s

Time = 49

DILUPBiCG:  Solving for h, Initial residual = 0.00348712, Final residual = 1.38128e-05, No Iterations 1
GAMG:  Solving for p_rgh, Initial residual = 0.00985513, Final residual = 4.41649e-05, No Iterations 3
time step continuity errors : sum local = 0.00528071, global = -1.96633e-18, cumulative = 4.27909e-16
rho max/min : 1.21213 1.13464
DILUPBiCG:  Solving for omega, Initial residual = 0.000176976, Final residual = 6.43625e-06, No Iterations 1
DILUPBiCG:  Solving for k, Initial residual = 0.0119603, Final residual = 0.000221672, No Iterations 1
ExecutionTime = 20.83 s  ClockTime = 21 s

Time = 50

DILUPBiCG:  Solving for h, Initial residual = 0.00344958, Final residual = 2.50506e-05, No Iterations 1
GAMG:  Solving for p_rgh, Initial residual = 0.00953319, Final residual = 4.54477e-05, No Iterations 2
time step continuity errors : sum local = 0.00505589, global = 7.43151e-18, cumulative = 4.3534e-16
rho max/min : 1.21216 1.13467
DILUPBiCG:  Solving for omega, Initial residual = 0.000153415, Final residual = 6.05981e-06, No Iterations 1
DILUPBiCG:  Solving for k, Initial residual = 0.0112521, Final residual = 0.000203003, No Iterations 1
ExecutionTime = 21.98 s  ClockTime = 22 s

Time = 51

DILUPBiCG:  Solving for h, Initial residual = 0.00339303, Final residual = 3.22155e-05, No Iterations 1
GAMG:  Solving for p_rgh, Initial residual = 0.0092967, Final residual = 4.31882e-05, No Iterations 3
time step continuity errors : sum local = 0.00471964, global = 2.21065e-17, cumulative = 4.57447e-16
rho max/min : 1.21219 1.1347
DILUPBiCG:  Solving for omega, Initial residual = 0.000155294, Final residual = 2.17901e-07, No Iterations 2
DILUPBiCG:  Solving for k, Initial residual = 0.0108246, Final residual = 0.000188135, No Iterations 1
ExecutionTime = 22.4 s  ClockTime = 22 s

Time = 52

DILUPBiCG:  Solving for h, Initial residual = 0.0033624, Final residual = 2.05574e-05, No Iterations 1
GAMG:  Solving for p_rgh, Initial residual = 0.00925633, Final residual = 3.96758e-05, No Iterations 2
time step continuity errors : sum local = 0.00430507, global = 2.05119e-17, cumulative = 4.77959e-16
rho max/min : 1.21222 1.13473
DILUPBiCG:  Solving for omega, Initial residual = 0.000141983, Final residual = 5.29772e-06, No Iterations 1
DILUPBiCG:  Solving for k, Initial residual = 0.0107316, Final residual = 0.000186526, No Iterations 1
ExecutionTime = 22.78 s  ClockTime = 23 s

Time = 53

DILUPBiCG:  Solving for h, Initial residual = 0.00329753, Final residual = 4.25271e-05, No Iterations 1
GAMG:  Solving for p_rgh, Initial residual = 0.00896744, Final residual = 3.64688e-05, No Iterations 2
time step continuity errors : sum local = 0.00391223, global = 3.14042e-17, cumulative = 5.09363e-16
rho max/min : 1.21225 1.13476
DILUPBiCG:  Solving for omega, Initial residual = 0.000135189, Final residual = 1.25594e-05, No Iterations 1
DILUPBiCG:  Solving for k, Initial residual = 0.0107327, Final residual = 0.000183737, No Iterations 1
ExecutionTime = 23.17 s  ClockTime = 23 s

Time = 54

DILUPBiCG:  Solving for h, Initial residual = 0.0032521, Final residual = 3.02313e-05, No Iterations 1
GAMG:  Solving for p_rgh, Initial residual = 0.00875119, Final residual = 2.54613e-05, No Iterations 2
time step continuity errors : sum local = 0.00271672, global = 6.11775e-18, cumulative = 5.15481e-16
rho max/min : 1.21228 1.13479
DILUPBiCG:  Solving for omega, Initial residual = 0.000134245, Final residual = 4.32863e-06, No Iterations 1
DILUPBiCG:  Solving for k, Initial residual = 0.0107659, Final residual = 0.000180649, No Iterations 1
ExecutionTime = 23.56 s  ClockTime = 23 s

Time = 55

DILUPBiCG:  Solving for h, Initial residual = 0.00321608, Final residual = 1.08647e-07, No Iterations 2
GAMG:  Solving for p_rgh, Initial residual = 0.0087219, Final residual = 3.15051e-05, No Iterations 2
time step continuity errors : sum local = 0.0033333, global = 9.92383e-18, cumulative = 5.25405e-16
rho max/min : 1.21231 1.13482
DILUPBiCG:  Solving for omega, Initial residual = 0.000129938, Final residual = 7.3925e-06, No Iterations 1
DILUPBiCG:  Solving for k, Initial residual = 0.0108039, Final residual = 0.000177427, No Iterations 1
ExecutionTime = 23.96 s  ClockTime = 24 s

Time = 56

DILUPBiCG:  Solving for h, Initial residual = 0.00319122, Final residual = 2.11815e-05, No Iterations 1
GAMG:  Solving for p_rgh, Initial residual = 0.00866488, Final residual = 4.26197e-05, No Iterations 2
time step continuity errors : sum local = 0.00444736, global = -1.64336e-17, cumulative = 5.08971e-16
rho max/min : 1.21235 1.13485
DILUPBiCG:  Solving for omega, Initial residual = 0.000124522, Final residual = 4.58673e-06, No Iterations 1
DILUPBiCG:  Solving for k, Initial residual = 0.0108253, Final residual = 0.000175512, No Iterations 1
ExecutionTime = 24.35 s  ClockTime = 24 s

Time = 57

DILUPBiCG:  Solving for h, Initial residual = 0.00315942, Final residual = 1.70412e-05, No Iterations 1
GAMG:  Solving for p_rgh, Initial residual = 0.0085765, Final residual = 4.59543e-05, No Iterations 2
time step continuity errors : sum local = 0.00476353, global = 1.6602e-17, cumulative = 5.25573e-16
rho max/min : 1.21238 1.13488
DILUPBiCG:  Solving for omega, Initial residual = 0.000121472, Final residual = 9.04886e-06, No Iterations 1
DILUPBiCG:  Solving for k, Initial residual = 0.0108759, Final residual = 0.000174644, No Iterations 1
ExecutionTime = 24.74 s  ClockTime = 25 s

Time = 58

DILUPBiCG:  Solving for h, Initial residual = 0.00312556, Final residual = 1.63069e-05, No Iterations 1
GAMG:  Solving for p_rgh, Initial residual = 0.00850839, Final residual = 4.22566e-05, No Iterations 2
time step continuity errors : sum local = 0.00433338, global = 3.54308e-18, cumulative = 5.29116e-16
rho max/min : 1.21241 1.13491
DILUPBiCG:  Solving for omega, Initial residual = 0.000120117, Final residual = 4.89373e-06, No Iterations 1
DILUPBiCG:  Solving for k, Initial residual = 0.0109364, Final residual = 0.000176251, No Iterations 1
ExecutionTime = 25.13 s  ClockTime = 25 s

Time = 59

DILUPBiCG:  Solving for h, Initial residual = 0.0030886, Final residual = 1.69636e-05, No Iterations 1
GAMG:  Solving for p_rgh, Initial residual = 0.00838771, Final residual = 3.17192e-05, No Iterations 2
time step continuity errors : sum local = 0.00321528, global = -3.93082e-17, cumulative = 4.89808e-16
rho max/min : 1.21244 1.13494
DILUPBiCG:  Solving for omega, Initial residual = 0.000119093, Final residual = 8.25076e-06, No Iterations 1
DILUPBiCG:  Solving for k, Initial residual = 0.0110269, Final residual = 0.00017788, No Iterations 1
ExecutionTime = 25.53 s  ClockTime = 25 s

Time = 60

DILUPBiCG:  Solving for h, Initial residual = 0.00304772, Final residual = 2.15524e-05, No Iterations 1
GAMG:  Solving for p_rgh, Initial residual = 0.00825902, Final residual = 3.65082e-05, No Iterations 2
time step continuity errors : sum local = 0.00369039, global = 6.10792e-18, cumulative = 4.95916e-16
rho max/min : 1.21247 1.13496
DILUPBiCG:  Solving for omega, Initial residual = 0.000120611, Final residual = 4.93224e-06, No Iterations 1
DILUPBiCG:  Solving for k, Initial residual = 0.0111635, Final residual = 0.000183594, No Iterations 1
ExecutionTime = 25.92 s  ClockTime = 26 s

Time = 61

DILUPBiCG:  Solving for h, Initial residual = 0.0029926, Final residual = 2.34635e-05, No Iterations 1
GAMG:  Solving for p_rgh, Initial residual = 0.00795783, Final residual = 2.69352e-05, No Iterations 3
time step continuity errors : sum local = 0.00269986, global = -7.44379e-18, cumulative = 4.88472e-16
rho max/min : 1.2125 1.13499
DILUPBiCG:  Solving for omega, Initial residual = 0.00012007, Final residual = 8.29125e-06, No Iterations 1
DILUPBiCG:  Solving for k, Initial residual = 0.0114933, Final residual = 0.000189993, No Iterations 1
ExecutionTime = 26.33 s  ClockTime = 26 s

Time = 62

DILUPBiCG:  Solving for h, Initial residual = 0.00296988, Final residual = 7.20166e-05, No Iterations 1
GAMG:  Solving for p_rgh, Initial residual = 0.00775285, Final residual = 5.20764e-05, No Iterations 2
time step continuity errors : sum local = 0.00523196, global = 6.90275e-18, cumulative = 4.95375e-16
rho max/min : 1.21253 1.13502
DILUPBiCG:  Solving for omega, Initial residual = 0.000119348, Final residual = 4.41116e-06, No Iterations 1
DILUPBiCG:  Solving for k, Initial residual = 0.011961, Final residual = 0.000204135, No Iterations 1
ExecutionTime = 26.72 s  ClockTime = 27 s

Time = 63

DILUPBiCG:  Solving for h, Initial residual = 0.00292575, Final residual = 1.43479e-05, No Iterations 1
GAMG:  Solving for p_rgh, Initial residual = 0.00766647, Final residual = 4.16408e-05, No Iterations 2
time step continuity errors : sum local = 0.00415851, global = 1.14355e-18, cumulative = 4.96518e-16
rho max/min : 1.21256 1.13505
DILUPBiCG:  Solving for omega, Initial residual = 0.00011226, Final residual = 4.72165e-06, No Iterations 1
DILUPBiCG:  Solving for k, Initial residual = 0.0125173, Final residual = 0.000216519, No Iterations 1
ExecutionTime = 27.11 s  ClockTime = 27 s

Time = 64

DILUPBiCG:  Solving for h, Initial residual = 0.00290672, Final residual = 1.65988e-05, No Iterations 1
GAMG:  Solving for p_rgh, Initial residual = 0.00766394, Final residual = 2.3378e-05, No Iterations 2
time step continuity errors : sum local = 0.00228633, global = 4.85684e-18, cumulative = 5.01375e-16
rho max/min : 1.21259 1.13507
DILUPBiCG:  Solving for omega, Initial residual = 0.000112372, Final residual = 5.27837e-06, No Iterations 1
DILUPBiCG:  Solving for k, Initial residual = 0.0129266, Final residual = 0.000225568, No Iterations 1
ExecutionTime = 27.49 s  ClockTime = 27 s

Time = 65

DILUPBiCG:  Solving for h, Initial residual = 0.00289166, Final residual = 5.63626e-05, No Iterations 1
GAMG:  Solving for p_rgh, Initial residual = 0.00756675, Final residual = 2.33704e-05, No Iterations 2
time step continuity errors : sum local = 0.00226858, global = 6.5823e-18, cumulative = 5.07957e-16
rho max/min : 1.21261 1.1351
DILUPBiCG:  Solving for omega, Initial residual = 0.000113028, Final residual = 4.56387e-06, No Iterations 1
DILUPBiCG:  Solving for k, Initial residual = 0.0131817, Final residual = 0.000231211, No Iterations 1
ExecutionTime = 27.88 s  ClockTime = 28 s

Time = 66

DILUPBiCG:  Solving for h, Initial residual = 0.00287729, Final residual = 3.51067e-05, No Iterations 1
GAMG:  Solving for p_rgh, Initial residual = 0.00766304, Final residual = 3.48438e-05, No Iterations 2
time step continuity errors : sum local = 0.00335394, global = -4.6897e-18, cumulative = 5.03268e-16
rho max/min : 1.21264 1.13512
DILUPBiCG:  Solving for omega, Initial residual = 0.000111325, Final residual = 5.44146e-06, No Iterations 1
DILUPBiCG:  Solving for k, Initial residual = 0.0133339, Final residual = 0.000236236, No Iterations 1
ExecutionTime = 28.26 s  ClockTime = 28 s

Time = 67

DILUPBiCG:  Solving for h, Initial residual = 0.00285679, Final residual = 2.14813e-05, No Iterations 1
GAMG:  Solving for p_rgh, Initial residual = 0.00766549, Final residual = 3.95747e-05, No Iterations 2
time step continuity errors : sum local = 0.00378405, global = 2.12757e-17, cumulative = 5.24543e-16
rho max/min : 1.21267 1.13515
DILUPBiCG:  Solving for omega, Initial residual = 0.000110809, Final residual = 6.13515e-06, No Iterations 1
DILUPBiCG:  Solving for k, Initial residual = 0.0134146, Final residual = 0.000240053, No Iterations 1
ExecutionTime = 28.65 s  ClockTime = 28 s

Time = 68

DILUPBiCG:  Solving for h, Initial residual = 0.00283343, Final residual = 2.00993e-05, No Iterations 1
GAMG:  Solving for p_rgh, Initial residual = 0.00758854, Final residual = 3.91341e-05, No Iterations 2
time step continuity errors : sum local = 0.00373268, global = 5.55243e-18, cumulative = 5.30096e-16
rho max/min : 1.2127 1.13518
DILUPBiCG:  Solving for omega, Initial residual = 0.000109415, Final residual = 7.82426e-06, No Iterations 1
DILUPBiCG:  Solving for k, Initial residual = 0.0134728, Final residual = 0.000244467, No Iterations 1
ExecutionTime = 29.03 s  ClockTime = 29 s

Time = 69

DILUPBiCG:  Solving for h, Initial residual = 0.00280996, Final residual = 2.06218e-05, No Iterations 1
GAMG:  Solving for p_rgh, Initial residual = 0.00747384, Final residual = 3.72565e-05, No Iterations 2
time step continuity errors : sum local = 0.00354203, global = -1.68662e-17, cumulative = 5.1323e-16
rho max/min : 1.21273 1.1352
DILUPBiCG:  Solving for omega, Initial residual = 0.000108586, Final residual = 4.45339e-06, No Iterations 1
DILUPBiCG:  Solving for k, Initial residual = 0.0134913, Final residual = 0.000248666, No Iterations 1
ExecutionTime = 29.42 s  ClockTime = 29 s

Time = 70

DILUPBiCG:  Solving for h, Initial residual = 0.00279057, Final residual = 2.29064e-05, No Iterations 1
GAMG:  Solving for p_rgh, Initial residual = 0.00739874, Final residual = 3.61407e-05, No Iterations 2
time step continuity errors : sum local = 0.00340672, global = -2.14699e-17, cumulative = 4.9176e-16
rho max/min : 1.21275 1.13523
DILUPBiCG:  Solving for omega, Initial residual = 0.000106737, Final residual = 7.93622e-06, No Iterations 1
DILUPBiCG:  Solving for k, Initial residual = 0.0135131, Final residual = 0.00025215, No Iterations 1
ExecutionTime = 29.82 s  ClockTime = 30 s

Time = 71

DILUPBiCG:  Solving for h, Initial residual = 0.00276625, Final residual = 2.56604e-05, No Iterations 1
GAMG:  Solving for p_rgh, Initial residual = 0.00731911, Final residual = 3.58562e-05, No Iterations 2
time step continuity errors : sum local = 0.00335071, global = 3.67753e-17, cumulative = 5.28535e-16
rho max/min : 1.21278 1.13526
DILUPBiCG:  Solving for omega, Initial residual = 0.000106238, Final residual = 4.67203e-06, No Iterations 1
DILUPBiCG:  Solving for k, Initial residual = 0.013524, Final residual = 0.000256461, No Iterations 1
ExecutionTime = 30.21 s  ClockTime = 30 s

Time = 72

DILUPBiCG:  Solving for h, Initial residual = 0.00274403, Final residual = 2.8704e-05, No Iterations 1
GAMG:  Solving for p_rgh, Initial residual = 0.00725093, Final residual = 3.59995e-05, No Iterations 2
time step continuity errors : sum local = 0.00333665, global = -1.38258e-17, cumulative = 5.14709e-16
rho max/min : 1.21281 1.13528
DILUPBiCG:  Solving for omega, Initial residual = 0.000106377, Final residual = 8.0552e-06, No Iterations 1
DILUPBiCG:  Solving for k, Initial residual = 0.0135371, Final residual = 0.000261144, No Iterations 1
ExecutionTime = 30.6 s  ClockTime = 30 s

Time = 73

DILUPBiCG:  Solving for h, Initial residual = 0.00272405, Final residual = 3.01231e-05, No Iterations 1
GAMG:  Solving for p_rgh, Initial residual = 0.00718091, Final residual = 3.59735e-05, No Iterations 2
time step continuity errors : sum local = 0.00330122, global = 4.56189e-18, cumulative = 5.19271e-16
rho max/min : 1.21284 1.13531
DILUPBiCG:  Solving for omega, Initial residual = 0.00010403, Final residual = 5.05397e-06, No Iterations 1
DILUPBiCG:  Solving for k, Initial residual = 0.0135333, Final residual = 0.000264341, No Iterations 1
ExecutionTime = 30.98 s  ClockTime = 31 s

Time = 74

DILUPBiCG:  Solving for h, Initial residual = 0.00270803, Final residual = 3.27792e-05, No Iterations 1
GAMG:  Solving for p_rgh, Initial residual = 0.00711045, Final residual = 3.53403e-05, No Iterations 2
time step continuity errors : sum local = 0.00322294, global = -1.45877e-17, cumulative = 5.04683e-16
rho max/min : 1.21286 1.13533
DILUPBiCG:  Solving for omega, Initial residual = 0.000103821, Final residual = 9.21902e-06, No Iterations 1
DILUPBiCG:  Solving for k, Initial residual = 0.0135554, Final residual = 0.000270801, No Iterations 1
ExecutionTime = 31.36 s  ClockTime = 31 s

Time = 75

DILUPBiCG:  Solving for h, Initial residual = 0.00269011, Final residual = 3.78356e-05, No Iterations 1
GAMG:  Solving for p_rgh, Initial residual = 0.00708086, Final residual = 3.39493e-05, No Iterations 2
time step continuity errors : sum local = 0.00307193, global = -1.124e-17, cumulative = 4.93443e-16
rho max/min : 1.21289 1.13536
DILUPBiCG:  Solving for omega, Initial residual = 0.000102943, Final residual = 4.3708e-06, No Iterations 1
DILUPBiCG:  Solving for k, Initial residual = 0.0135931, Final residual = 0.000276344, No Iterations 1
ExecutionTime = 31.75 s  ClockTime = 32 s

Time = 76

DILUPBiCG:  Solving for h, Initial residual = 0.00267194, Final residual = 4.85818e-05, No Iterations 1
GAMG:  Solving for p_rgh, Initial residual = 0.00706745, Final residual = 3.2425e-05, No Iterations 2
time step continuity errors : sum local = 0.00290154, global = 8.5388e-18, cumulative = 5.01982e-16
rho max/min : 1.21292 1.13538
DILUPBiCG:  Solving for omega, Initial residual = 0.000102974, Final residual = 1.01976e-05, No Iterations 1
DILUPBiCG:  Solving for k, Initial residual = 0.013657, Final residual = 0.000284046, No Iterations 1
ExecutionTime = 32.15 s  ClockTime = 32 s

Time = 77

DILUPBiCG:  Solving for h, Initial residual = 0.00265571, Final residual = 6.7366e-05, No Iterations 1
GAMG:  Solving for p_rgh, Initial residual = 0.00701881, Final residual = 3.09309e-05, No Iterations 2
time step continuity errors : sum local = 0.00274251, global = 2.49749e-17, cumulative = 5.26957e-16
rho max/min : 1.21294 1.13541
DILUPBiCG:  Solving for omega, Initial residual = 0.000103787, Final residual = 4.38874e-06, No Iterations 1
DILUPBiCG:  Solving for k, Initial residual = 0.0136911, Final residual = 0.000290475, No Iterations 1
ExecutionTime = 32.54 s  ClockTime = 32 s

Time = 78

DILUPBiCG:  Solving for h, Initial residual = 0.00263702, Final residual = 8.75658e-05, No Iterations 1
GAMG:  Solving for p_rgh, Initial residual = 0.00703606, Final residual = 2.97733e-05, No Iterations 2
time step continuity errors : sum local = 0.00263374, global = -1.63942e-18, cumulative = 5.25318e-16
rho max/min : 1.21297 1.13543
DILUPBiCG:  Solving for omega, Initial residual = 0.000103118, Final residual = 9.23684e-06, No Iterations 1
DILUPBiCG:  Solving for k, Initial residual = 0.0137126, Final residual = 0.000297553, No Iterations 1
ExecutionTime = 32.92 s  ClockTime = 33 s

Time = 79

DILUPBiCG:  Solving for h, Initial residual = 0.00261944, Final residual = 0.000127105, No Iterations 1
GAMG:  Solving for p_rgh, Initial residual = 0.00706125, Final residual = 2.94801e-05, No Iterations 2
time step continuity errors : sum local = 0.00260389, global = 2.77277e-17, cumulative = 5.53045e-16
rho max/min : 1.213 1.13546
DILUPBiCG:  Solving for omega, Initial residual = 0.000103307, Final residual = 4.1849e-06, No Iterations 1
DILUPBiCG:  Solving for k, Initial residual = 0.0136468, Final residual = 0.000301581, No Iterations 1
ExecutionTime = 33.32 s  ClockTime = 33 s

Time = 80

DILUPBiCG:  Solving for h, Initial residual = 0.00260339, Final residual = 0.00022946, No Iterations 1
GAMG:  Solving for p_rgh, Initial residual = 0.00719182, Final residual = 3.07446e-05, No Iterations 2
time step continuity errors : sum local = 0.0027013, global = -3.11172e-18, cumulative = 5.49934e-16
rho max/min : 1.21302 1.13548
DILUPBiCG:  Solving for omega, Initial residual = 0.000105176, Final residual = 9.58635e-06, No Iterations 1
DILUPBiCG:  Solving for k, Initial residual = 0.0135847, Final residual = 0.000306291, No Iterations 1
ExecutionTime = 33.73 s  ClockTime = 34 s

Time = 81

DILUPBiCG:  Solving for h, Initial residual = 0.00258892, Final residual = 0.000206194, No Iterations 1
GAMG:  Solving for p_rgh, Initial residual = 0.00712037, Final residual = 3.17167e-05, No Iterations 2
time step continuity errors : sum local = 0.00276725, global = -5.74906e-18, cumulative = 5.44185e-16
rho max/min : 1.21305 1.13551
DILUPBiCG:  Solving for omega, Initial residual = 0.000105366, Final residual = 5.02414e-06, No Iterations 1
DILUPBiCG:  Solving for k, Initial residual = 0.0134788, Final residual = 0.000308374, No Iterations 1
ExecutionTime = 34.13 s  ClockTime = 34 s

Time = 82

DILUPBiCG:  Solving for h, Initial residual = 0.00257203, Final residual = 0.000246885, No Iterations 1
GAMG:  Solving for p_rgh, Initial residual = 0.00714883, Final residual = 3.24017e-05, No Iterations 2
time step continuity errors : sum local = 0.00282192, global = -1.63697e-18, cumulative = 5.42548e-16
rho max/min : 1.21308 1.13553
DILUPBiCG:  Solving for omega, Initial residual = 0.000107228, Final residual = 9.29547e-06, No Iterations 1
DILUPBiCG:  Solving for k, Initial residual = 0.0133929, Final residual = 0.000315786, No Iterations 1
ExecutionTime = 34.53 s  ClockTime = 34 s

Time = 83

DILUPBiCG:  Solving for h, Initial residual = 0.00255587, Final residual = 0.000229883, No Iterations 1
GAMG:  Solving for p_rgh, Initial residual = 0.00708585, Final residual = 3.29663e-05, No Iterations 2
time step continuity errors : sum local = 0.00284648, global = -5.17022e-17, cumulative = 4.90845e-16
rho max/min : 1.2131 1.13556
DILUPBiCG:  Solving for omega, Initial residual = 0.000112852, Final residual = 5.1614e-06, No Iterations 1
DILUPBiCG:  Solving for k, Initial residual = 0.0132677, Final residual = 0.000319061, No Iterations 1
ExecutionTime = 34.92 s  ClockTime = 35 s

Time = 84

DILUPBiCG:  Solving for h, Initial residual = 0.00253845, Final residual = 0.000206619, No Iterations 1
GAMG:  Solving for p_rgh, Initial residual = 0.00699468, Final residual = 3.29587e-05, No Iterations 2
time step continuity errors : sum local = 0.00282843, global = 3.97617e-17, cumulative = 5.30607e-16
rho max/min : 1.21313 1.13558
DILUPBiCG:  Solving for omega, Initial residual = 0.000116733, Final residual = 9.18282e-06, No Iterations 1
DILUPBiCG:  Solving for k, Initial residual = 0.0131725, Final residual = 0.000323507, No Iterations 1
ExecutionTime = 35.31 s  ClockTime = 35 s

Time = 85

DILUPBiCG:  Solving for h, Initial residual = 0.0025222, Final residual = 1.00881e-07, No Iterations 2
GAMG:  Solving for p_rgh, Initial residual = 0.00655851, Final residual = 3.1311e-05, No Iterations 2
time step continuity errors : sum local = 0.00267605, global = 5.51925e-18, cumulative = 5.36126e-16
rho max/min : 1.21316 1.13561
DILUPBiCG:  Solving for omega, Initial residual = 0.000119129, Final residual = 5.91923e-06, No Iterations 1
DILUPBiCG:  Solving for k, Initial residual = 0.0130757, Final residual = 0.000326904, No Iterations 1
ExecutionTime = 35.7 s  ClockTime = 36 s

Time = 86

DILUPBiCG:  Solving for h, Initial residual = 0.00250814, Final residual = 1.04734e-07, No Iterations 2
GAMG:  Solving for p_rgh, Initial residual = 0.00633484, Final residual = 3.02427e-05, No Iterations 2
time step continuity errors : sum local = 0.00257554, global = -1.72447e-17, cumulative = 5.18882e-16
rho max/min : 1.21318 1.13563
DILUPBiCG:  Solving for omega, Initial residual = 0.000117879, Final residual = 8.71816e-06, No Iterations 1
DILUPBiCG:  Solving for k, Initial residual = 0.0130142, Final residual = 0.000336747, No Iterations 1
ExecutionTime = 36.1 s  ClockTime = 36 s

Time = 87

DILUPBiCG:  Solving for h, Initial residual = 0.00249503, Final residual = 0.000158808, No Iterations 1
GAMG:  Solving for p_rgh, Initial residual = 0.00599551, Final residual = 2.89307e-05, No Iterations 2
time step continuity errors : sum local = 0.00244783, global = 1.66032e-17, cumulative = 5.35485e-16
rho max/min : 1.21321 1.13565
DILUPBiCG:  Solving for omega, Initial residual = 0.000118418, Final residual = 6.06235e-06, No Iterations 1
DILUPBiCG:  Solving for k, Initial residual = 0.0129403, Final residual = 0.000340823, No Iterations 1
ExecutionTime = 36.49 s  ClockTime = 36 s

Time = 88

DILUPBiCG:  Solving for h, Initial residual = 0.00248252, Final residual = 9.27698e-05, No Iterations 1
GAMG:  Solving for p_rgh, Initial residual = 0.00596639, Final residual = 2.81402e-05, No Iterations 2
time step continuity errors : sum local = 0.00236304, global = 2.94839e-17, cumulative = 5.64969e-16
rho max/min : 1.21323 1.13567
DILUPBiCG:  Solving for omega, Initial residual = 0.000114224, Final residual = 1.04794e-05, No Iterations 1
DILUPBiCG:  Solving for k, Initial residual = 0.012898, Final residual = 0.00035083, No Iterations 1
ExecutionTime = 36.88 s  ClockTime = 37 s

Time = 89

DILUPBiCG:  Solving for h, Initial residual = 0.00247294, Final residual = 8.14169e-05, No Iterations 1
GAMG:  Solving for p_rgh, Initial residual = 0.00604989, Final residual = 2.76468e-05, No Iterations 2
time step continuity errors : sum local = 0.00230997, global = 2.39671e-17, cumulative = 5.88936e-16
rho max/min : 1.21325 1.1357
DILUPBiCG:  Solving for omega, Initial residual = 0.000111676, Final residual = 5.84502e-06, No Iterations 1
DILUPBiCG:  Solving for k, Initial residual = 0.0128684, Final residual = 0.00036393, No Iterations 1
ExecutionTime = 37.26 s  ClockTime = 37 s

Time = 90

DILUPBiCG:  Solving for h, Initial residual = 0.00246119, Final residual = 8.51605e-05, No Iterations 1
GAMG:  Solving for p_rgh, Initial residual = 0.00604813, Final residual = 2.71359e-05, No Iterations 2
time step continuity errors : sum local = 0.00225022, global = -5.38283e-18, cumulative = 5.83553e-16
rho max/min : 1.21327 1.13572
DILUPBiCG:  Solving for omega, Initial residual = 0.000109211, Final residual = 2.23806e-07, No Iterations 2
DILUPBiCG:  Solving for k, Initial residual = 0.0128362, Final residual = 0.000371098, No Iterations 1
ExecutionTime = 37.65 s  ClockTime = 37 s

Time = 91

DILUPBiCG:  Solving for h, Initial residual = 0.00245017, Final residual = 7.47352e-05, No Iterations 1
GAMG:  Solving for p_rgh, Initial residual = 0.00604474, Final residual = 2.66131e-05, No Iterations 2
time step continuity errors : sum local = 0.00218629, global = 2.39155e-18, cumulative = 5.85945e-16
rho max/min : 1.2133 1.13574
DILUPBiCG:  Solving for omega, Initial residual = 0.000105797, Final residual = 4.74877e-06, No Iterations 1
DILUPBiCG:  Solving for k, Initial residual = 0.0128398, Final residual = 0.000383479, No Iterations 1
ExecutionTime = 38.05 s  ClockTime = 38 s

Time = 92

DILUPBiCG:  Solving for h, Initial residual = 0.00243628, Final residual = 6.39832e-05, No Iterations 1
GAMG:  Solving for p_rgh, Initial residual = 0.00604663, Final residual = 2.58784e-05, No Iterations 2
time step continuity errors : sum local = 0.00212048, global = -3.81407e-18, cumulative = 5.82131e-16
rho max/min : 1.21332 1.13576
DILUPBiCG:  Solving for omega, Initial residual = 0.000106345, Final residual = 1.95715e-07, No Iterations 2
DILUPBiCG:  Solving for k, Initial residual = 0.0128661, Final residual = 0.000392794, No Iterations 1
ExecutionTime = 38.45 s  ClockTime = 38 s

Time = 93

DILUPBiCG:  Solving for h, Initial residual = 0.00242203, Final residual = 5.1062e-05, No Iterations 1
GAMG:  Solving for p_rgh, Initial residual = 0.00602075, Final residual = 2.49656e-05, No Iterations 2
time step continuity errors : sum local = 0.00205439, global = -8.53511e-19, cumulative = 5.81277e-16
rho max/min : 1.21334 1.13578
DILUPBiCG:  Solving for omega, Initial residual = 0.000105042, Final residual = 4.91332e-06, No Iterations 1
DILUPBiCG:  Solving for k, Initial residual = 0.0129275, Final residual = 0.000405681, No Iterations 1
ExecutionTime = 38.83 s  ClockTime = 39 s

Time = 94

DILUPBiCG:  Solving for h, Initial residual = 0.00241012, Final residual = 4.18246e-05, No Iterations 1
GAMG:  Solving for p_rgh, Initial residual = 0.00606328, Final residual = 2.4266e-05, No Iterations 2
time step continuity errors : sum local = 0.00198718, global = -2.15025e-17, cumulative = 5.59775e-16
rho max/min : 1.21336 1.1358
DILUPBiCG:  Solving for omega, Initial residual = 0.000102676, Final residual = 1.68264e-07, No Iterations 2
DILUPBiCG:  Solving for k, Initial residual = 0.0129848, Final residual = 0.000411588, No Iterations 1
ExecutionTime = 39.23 s  ClockTime = 39 s

Time = 95

DILUPBiCG:  Solving for h, Initial residual = 0.00239832, Final residual = 3.13687e-05, No Iterations 1
GAMG:  Solving for p_rgh, Initial residual = 0.0060725, Final residual = 2.46973e-05, No Iterations 2
time step continuity errors : sum local = 0.00201201, global = 2.0491e-17, cumulative = 5.80266e-16
rho max/min : 1.21339 1.13582
DILUPBiCG:  Solving for omega, Initial residual = 0.00010132, Final residual = 3.6934e-06, No Iterations 1
DILUPBiCG:  Solving for k, Initial residual = 0.0130999, Final residual = 0.000419134, No Iterations 1
ExecutionTime = 39.62 s  ClockTime = 39 s

Time = 96

DILUPBiCG:  Solving for h, Initial residual = 0.00238456, Final residual = 2.47111e-05, No Iterations 1
GAMG:  Solving for p_rgh, Initial residual = 0.00613172, Final residual = 2.70734e-05, No Iterations 2
time step continuity errors : sum local = 0.00218926, global = -8.77968e-18, cumulative = 5.71486e-16
rho max/min : 1.21341 1.13584
DILUPBiCG:  Solving for omega, Initial residual = 0.000100862, Final residual = 1.71473e-07, No Iterations 2
DILUPBiCG:  Solving for k, Initial residual = 0.0131867, Final residual = 0.000428295, No Iterations 1
ExecutionTime = 40.02 s  ClockTime = 40 s

Time = 97

DILUPBiCG:  Solving for h, Initial residual = 0.00237435, Final residual = 2.02586e-05, No Iterations 1
GAMG:  Solving for p_rgh, Initial residual = 0.00610791, Final residual = 2.95741e-05, No Iterations 2
time step continuity errors : sum local = 0.0023798, global = -9.6627e-18, cumulative = 5.61823e-16
rho max/min : 1.21343 1.13586
DILUPBiCG:  Solving for omega, Initial residual = 0.000100405, Final residual = 3.56005e-06, No Iterations 1
DILUPBiCG:  Solving for k, Initial residual = 0.0133364, Final residual = 0.000435624, No Iterations 1
ExecutionTime = 40.4 s  ClockTime = 40 s

Time = 98

DILUPBiCG:  Solving for h, Initial residual = 0.00236104, Final residual = 1.81372e-05, No Iterations 1
GAMG:  Solving for p_rgh, Initial residual = 0.00607504, Final residual = 3.07683e-05, No Iterations 2
time step continuity errors : sum local = 0.00246636, global = 2.07202e-17, cumulative = 5.82543e-16
rho max/min : 1.21345 1.13588
DILUPBiCG:  Solving for omega, Initial residual = 9.87951e-05, Final residual = 1.5483e-07, No Iterations 2
DILUPBiCG:  Solving for k, Initial residual = 0.013504, Final residual = 0.000439839, No Iterations 1
ExecutionTime = 40.81 s  ClockTime = 41 s

Time = 99

DILUPBiCG:  Solving for h, Initial residual = 0.0023489, Final residual = 1.73728e-05, No Iterations 1
GAMG:  Solving for p_rgh, Initial residual = 0.00608502, Final residual = 2.99445e-05, No Iterations 2
time step continuity errors : sum local = 0.00238611, global = -1.56471e-17, cumulative = 5.66896e-16
rho max/min : 1.21347 1.1359
DILUPBiCG:  Solving for omega, Initial residual = 9.80524e-05, Final residual = 3.56454e-06, No Iterations 1
DILUPBiCG:  Solving for k, Initial residual = 0.0136861, Final residual = 0.000449635, No Iterations 1
ExecutionTime = 41.19 s  ClockTime = 41 s

Time = 100

DILUPBiCG:  Solving for h, Initial residual = 0.00233694, Final residual = 1.76651e-05, No Iterations 1
GAMG:  Solving for p_rgh, Initial residual = 0.00604121, Final residual = 2.73959e-05, No Iterations 2
time step continuity errors : sum local = 0.0021705, global = -2.49564e-17, cumulative = 5.4194e-16
rho max/min : 1.2135 1.13593
DILUPBiCG:  Solving for omega, Initial residual = 9.76735e-05, Final residual = 1.65389e-07, No Iterations 2
DILUPBiCG:  Solving for k, Initial residual = 0.0138151, Final residual = 0.000459781, No Iterations 1
ExecutionTime = 42.29 s  ClockTime = 42 s

Time = 101

DILUPBiCG:  Solving for h, Initial residual = 0.00232445, Final residual = 1.95546e-05, No Iterations 1
GAMG:  Solving for p_rgh, Initial residual = 0.0059864, Final residual = 2.61981e-05, No Iterations 2
time step continuity errors : sum local = 0.00207366, global = 3.49762e-18, cumulative = 5.45438e-16
rho max/min : 1.21352 1.13594
DILUPBiCG:  Solving for omega, Initial residual = 9.78953e-05, Final residual = 3.34175e-06, No Iterations 1
DILUPBiCG:  Solving for k, Initial residual = 0.0139456, Final residual = 0.000466573, No Iterations 1
ExecutionTime = 42.68 s  ClockTime = 42 s

Time = 102

DILUPBiCG:  Solving for h, Initial residual = 0.00231381, Final residual = 2.2102e-05, No Iterations 1
GAMG:  Solving for p_rgh, Initial residual = 0.00599649, Final residual = 2.68891e-05, No Iterations 2
time step continuity errors : sum local = 0.00211856, global = -1.37815e-17, cumulative = 5.31656e-16
rho max/min : 1.21354 1.13596
DILUPBiCG:  Solving for omega, Initial residual = 9.75625e-05, Final residual = 1.58793e-07, No Iterations 2
DILUPBiCG:  Solving for k, Initial residual = 0.0140305, Final residual = 0.000470291, No Iterations 1
ExecutionTime = 43.09 s  ClockTime = 43 s

Time = 103

DILUPBiCG:  Solving for h, Initial residual = 0.00230525, Final residual = 2.38758e-05, No Iterations 1
GAMG:  Solving for p_rgh, Initial residual = 0.00594815, Final residual = 2.79797e-05, No Iterations 2
time step continuity errors : sum local = 0.0022012, global = -4.94051e-19, cumulative = 5.31162e-16
rho max/min : 1.21356 1.13598
DILUPBiCG:  Solving for omega, Initial residual = 9.69731e-05, Final residual = 3.48518e-06, No Iterations 1
DILUPBiCG:  Solving for k, Initial residual = 0.014107, Final residual = 0.00047108, No Iterations 1
ExecutionTime = 43.49 s  ClockTime = 43 s

Time = 104

DILUPBiCG:  Solving for h, Initial residual = 0.00229484, Final residual = 2.54101e-05, No Iterations 1
GAMG:  Solving for p_rgh, Initial residual = 0.005909, Final residual = 2.84724e-05, No Iterations 2
time step continuity errors : sum local = 0.00223961, global = 9.24423e-18, cumulative = 5.40406e-16
rho max/min : 1.21358 1.136
DILUPBiCG:  Solving for omega, Initial residual = 9.69211e-05, Final residual = 1.73679e-07, No Iterations 2
DILUPBiCG:  Solving for k, Initial residual = 0.0141089, Final residual = 0.000469838, No Iterations 1
ExecutionTime = 43.89 s  ClockTime = 44 s

Time = 105

DILUPBiCG:  Solving for h, Initial residual = 0.0022837, Final residual = 2.61336e-05, No Iterations 1
GAMG:  Solving for p_rgh, Initial residual = 0.00589012, Final residual = 2.88162e-05, No Iterations 2
time step continuity errors : sum local = 0.00225351, global = -2.3977e-17, cumulative = 5.16429e-16
rho max/min : 1.2136 1.13602
DILUPBiCG:  Solving for omega, Initial residual = 9.64258e-05, Final residual = 3.36464e-06, No Iterations 1
DILUPBiCG:  Solving for k, Initial residual = 0.0141122, Final residual = 0.000475445, No Iterations 1
ExecutionTime = 44.29 s  ClockTime = 44 s

Time = 106

DILUPBiCG:  Solving for h, Initial residual = 0.00227202, Final residual = 2.62512e-05, No Iterations 1
GAMG:  Solving for p_rgh, Initial residual = 0.00584014, Final residual = 2.88307e-05, No Iterations 2
time step continuity errors : sum local = 0.0022524, global = 4.74464e-17, cumulative = 5.63876e-16
rho max/min : 1.21362 1.13604
DILUPBiCG:  Solving for omega, Initial residual = 9.64014e-05, Final residual = 1.66396e-07, No Iterations 2
DILUPBiCG:  Solving for k, Initial residual = 0.0140715, Final residual = 0.000477586, No Iterations 1
ExecutionTime = 44.66 s  ClockTime = 44 s

Time = 107

DILUPBiCG:  Solving for h, Initial residual = 0.00225779, Final residual = 2.60645e-05, No Iterations 1
GAMG:  Solving for p_rgh, Initial residual = 0.00582343, Final residual = 2.87457e-05, No Iterations 2
time step continuity errors : sum local = 0.00223848, global = -1.23215e-17, cumulative = 5.51554e-16
rho max/min : 1.21364 1.13606
DILUPBiCG:  Solving for omega, Initial residual = 9.45367e-05, Final residual = 3.42366e-06, No Iterations 1
DILUPBiCG:  Solving for k, Initial residual = 0.0140361, Final residual = 0.00048003, No Iterations 1
ExecutionTime = 45.03 s  ClockTime = 45 s

Time = 108

DILUPBiCG:  Solving for h, Initial residual = 0.00224506, Final residual = 2.60364e-05, No Iterations 1
GAMG:  Solving for p_rgh, Initial residual = 0.00575183, Final residual = 2.84619e-05, No Iterations 2
time step continuity errors : sum local = 0.00221, global = -3.11e-17, cumulative = 5.20454e-16
rho max/min : 1.21366 1.13608
DILUPBiCG:  Solving for omega, Initial residual = 9.4024e-05, Final residual = 1.66389e-07, No Iterations 2
DILUPBiCG:  Solving for k, Initial residual = 0.0139515, Final residual = 0.000475611, No Iterations 1
ExecutionTime = 45.39 s  ClockTime = 45 s

Time = 109

DILUPBiCG:  Solving for h, Initial residual = 0.00223387, Final residual = 2.37224e-05, No Iterations 1
GAMG:  Solving for p_rgh, Initial residual = 0.00571209, Final residual = 2.80953e-05, No Iterations 2
time step continuity errors : sum local = 0.00217721, global = -2.09611e-17, cumulative = 4.99493e-16
rho max/min : 1.21368 1.1361
DILUPBiCG:  Solving for omega, Initial residual = 9.28714e-05, Final residual = 3.49241e-06, No Iterations 1
DILUPBiCG:  Solving for k, Initial residual = 0.0138653, Final residual = 0.000471675, No Iterations 1
ExecutionTime = 45.75 s  ClockTime = 46 s

Time = 110

DILUPBiCG:  Solving for h, Initial residual = 0.00222361, Final residual = 2.19631e-05, No Iterations 1
GAMG:  Solving for p_rgh, Initial residual = 0.00569529, Final residual = 2.79179e-05, No Iterations 2
time step continuity errors : sum local = 0.00215003, global = -8.46996e-18, cumulative = 4.91023e-16
rho max/min : 1.2137 1.13612
DILUPBiCG:  Solving for omega, Initial residual = 9.15493e-05, Final residual = 1.52892e-07, No Iterations 2
DILUPBiCG:  Solving for k, Initial residual = 0.0137286, Final residual = 0.000471573, No Iterations 1
ExecutionTime = 46.16 s  ClockTime = 46 s

Time = 111

DILUPBiCG:  Solving for h, Initial residual = 0.00221398, Final residual = 2.09265e-05, No Iterations 1
GAMG:  Solving for p_rgh, Initial residual = 0.00567713, Final residual = 2.78741e-05, No Iterations 2
time step continuity errors : sum local = 0.00214365, global = 2.3086e-17, cumulative = 5.14109e-16
rho max/min : 1.21372 1.13614
DILUPBiCG:  Solving for omega, Initial residual = 9.0294e-05, Final residual = 3.44328e-06, No Iterations 1
DILUPBiCG:  Solving for k, Initial residual = 0.0136076, Final residual = 0.000464205, No Iterations 1
ExecutionTime = 46.54 s  ClockTime = 46 s

Time = 112

DILUPBiCG:  Solving for h, Initial residual = 0.00220279, Final residual = 2.0342e-05, No Iterations 1
GAMG:  Solving for p_rgh, Initial residual = 0.005642, Final residual = 2.80752e-05, No Iterations 2
time step continuity errors : sum local = 0.00215587, global = 1.66155e-17, cumulative = 5.30724e-16
rho max/min : 1.21374 1.13615
DILUPBiCG:  Solving for omega, Initial residual = 9.00816e-05, Final residual = 1.5004e-07, No Iterations 2
DILUPBiCG:  Solving for k, Initial residual = 0.0134897, Final residual = 0.000458076, No Iterations 1
ExecutionTime = 46.95 s  ClockTime = 47 s

Time = 113

DILUPBiCG:  Solving for h, Initial residual = 0.00219266, Final residual = 1.97722e-05, No Iterations 1
GAMG:  Solving for p_rgh, Initial residual = 0.00557941, Final residual = 2.84711e-05, No Iterations 2
time step continuity errors : sum local = 0.00217757, global = 7.63797e-18, cumulative = 5.38362e-16
rho max/min : 1.21376 1.13617
DILUPBiCG:  Solving for omega, Initial residual = 8.8321e-05, Final residual = 3.64307e-06, No Iterations 1
DILUPBiCG:  Solving for k, Initial residual = 0.0133671, Final residual = 0.000459043, No Iterations 1
ExecutionTime = 47.33 s  ClockTime = 47 s

Time = 114

DILUPBiCG:  Solving for h, Initial residual = 0.00217988, Final residual = 1.92827e-05, No Iterations 1
GAMG:  Solving for p_rgh, Initial residual = 0.00554887, Final residual = 2.86483e-05, No Iterations 2
time step continuity errors : sum local = 0.00219246, global = -2.70162e-17, cumulative = 5.11346e-16
rho max/min : 1.21378 1.13619
DILUPBiCG:  Solving for omega, Initial residual = 8.862e-05, Final residual = 1.51492e-07, No Iterations 2
DILUPBiCG:  Solving for k, Initial residual = 0.0132635, Final residual = 0.000451232, No Iterations 1
ExecutionTime = 47.73 s  ClockTime = 48 s

Time = 115

DILUPBiCG:  Solving for h, Initial residual = 0.00216653, Final residual = 1.81207e-05, No Iterations 1
GAMG:  Solving for p_rgh, Initial residual = 0.00552423, Final residual = 2.89856e-05, No Iterations 2
time step continuity errors : sum local = 0.00220386, global = -8.71208e-18, cumulative = 5.02634e-16
rho max/min : 1.2138 1.13621
DILUPBiCG:  Solving for omega, Initial residual = 8.85536e-05, Final residual = 3.15562e-06, No Iterations 1
DILUPBiCG:  Solving for k, Initial residual = 0.0131765, Final residual = 0.000449034, No Iterations 1
ExecutionTime = 48.12 s  ClockTime = 48 s

Time = 116

DILUPBiCG:  Solving for h, Initial residual = 0.00215554, Final residual = 1.7005e-05, No Iterations 1
GAMG:  Solving for p_rgh, Initial residual = 0.00544847, Final residual = 2.91293e-05, No Iterations 2
time step continuity errors : sum local = 0.00221333, global = 3.26018e-17, cumulative = 5.35236e-16
rho max/min : 1.21382 1.13623
DILUPBiCG:  Solving for omega, Initial residual = 8.84879e-05, Final residual = 1.35995e-07, No Iterations 2
DILUPBiCG:  Solving for k, Initial residual = 0.0130621, Final residual = 0.000441974, No Iterations 1
ExecutionTime = 48.52 s  ClockTime = 48 s

Time = 117

DILUPBiCG:  Solving for h, Initial residual = 0.00214806, Final residual = 1.66618e-05, No Iterations 1
GAMG:  Solving for p_rgh, Initial residual = 0.00544581, Final residual = 2.92124e-05, No Iterations 2
time step continuity errors : sum local = 0.00220536, global = -3.20783e-17, cumulative = 5.03158e-16
rho max/min : 1.21384 1.13624
DILUPBiCG:  Solving for omega, Initial residual = 8.76013e-05, Final residual = 3.32683e-06, No Iterations 1
DILUPBiCG:  Solving for k, Initial residual = 0.012967, Final residual = 0.000441461, No Iterations 1
ExecutionTime = 48.9 s  ClockTime = 49 s

Time = 118

DILUPBiCG:  Solving for h, Initial residual = 0.00213707, Final residual = 1.64673e-05, No Iterations 1
GAMG:  Solving for p_rgh, Initial residual = 0.0053735, Final residual = 2.89857e-05, No Iterations 2
time step continuity errors : sum local = 0.00218646, global = -4.37264e-18, cumulative = 4.98785e-16
rho max/min : 1.21385 1.13626
DILUPBiCG:  Solving for omega, Initial residual = 8.70362e-05, Final residual = 1.30582e-07, No Iterations 2
DILUPBiCG:  Solving for k, Initial residual = 0.0128394, Final residual = 0.000434625, No Iterations 1
ExecutionTime = 49.29 s  ClockTime = 49 s

Time = 119

DILUPBiCG:  Solving for h, Initial residual = 0.0021276, Final residual = 1.65486e-05, No Iterations 1
GAMG:  Solving for p_rgh, Initial residual = 0.00535101, Final residual = 2.87237e-05, No Iterations 2
time step continuity errors : sum local = 0.00215641, global = -1.07312e-17, cumulative = 4.88054e-16
rho max/min : 1.21387 1.13628
DILUPBiCG:  Solving for omega, Initial residual = 8.64034e-05, Final residual = 2.9859e-06, No Iterations 1
DILUPBiCG:  Solving for k, Initial residual = 0.0127174, Final residual = 0.000434726, No Iterations 1
ExecutionTime = 49.69 s  ClockTime = 49 s

Time = 120

DILUPBiCG:  Solving for h, Initial residual = 0.00211718, Final residual = 1.64441e-05, No Iterations 1
GAMG:  Solving for p_rgh, Initial residual = 0.0052902, Final residual = 2.80443e-05, No Iterations 2
time step continuity errors : sum local = 0.00211471, global = 3.02582e-17, cumulative = 5.18312e-16
rho max/min : 1.21389 1.13629
DILUPBiCG:  Solving for omega, Initial residual = 8.70543e-05, Final residual = 1.29321e-07, No Iterations 2
DILUPBiCG:  Solving for k, Initial residual = 0.0125798, Final residual = 0.000425441, No Iterations 1
ExecutionTime = 50.08 s  ClockTime = 50 s

Time = 121

DILUPBiCG:  Solving for h, Initial residual = 0.00210752, Final residual = 1.63262e-05, No Iterations 1
GAMG:  Solving for p_rgh, Initial residual = 0.00524805, Final residual = 2.73661e-05, No Iterations 2
time step continuity errors : sum local = 0.00206188, global = 6.8453e-18, cumulative = 5.25157e-16
rho max/min : 1.21391 1.13631
DILUPBiCG:  Solving for omega, Initial residual = 8.62869e-05, Final residual = 3.21224e-06, No Iterations 1
DILUPBiCG:  Solving for k, Initial residual = 0.0124313, Final residual = 0.000422745, No Iterations 1
ExecutionTime = 50.47 s  ClockTime = 50 s

Time = 122

DILUPBiCG:  Solving for h, Initial residual = 0.00209823, Final residual = 1.56033e-05, No Iterations 1
GAMG:  Solving for p_rgh, Initial residual = 0.00519246, Final residual = 2.65824e-05, No Iterations 2
time step continuity errors : sum local = 0.00200296, global = 2.05322e-17, cumulative = 5.45689e-16
rho max/min : 1.21393 1.13633
DILUPBiCG:  Solving for omega, Initial residual = 8.61997e-05, Final residual = 8.38286e-06, No Iterations 1
DILUPBiCG:  Solving for k, Initial residual = 0.0122716, Final residual = 0.00041618, No Iterations 1
ExecutionTime = 50.86 s  ClockTime = 51 s

Time = 123

DILUPBiCG:  Solving for h, Initial residual = 0.00208961, Final residual = 1.51662e-05, No Iterations 1
GAMG:  Solving for p_rgh, Initial residual = 0.00515343, Final residual = 2.58049e-05, No Iterations 2
time step continuity errors : sum local = 0.00194624, global = 1.79698e-17, cumulative = 5.63659e-16
rho max/min : 1.21394 1.13634
DILUPBiCG:  Solving for omega, Initial residual = 8.66519e-05, Final residual = 7.8207e-06, No Iterations 1
DILUPBiCG:  Solving for k, Initial residual = 0.012119, Final residual = 0.000410858, No Iterations 1
ExecutionTime = 51.25 s  ClockTime = 51 s

Time = 124

DILUPBiCG:  Solving for h, Initial residual = 0.00208104, Final residual = 1.51333e-05, No Iterations 1
GAMG:  Solving for p_rgh, Initial residual = 0.00511243, Final residual = 2.53332e-05, No Iterations 2
time step continuity errors : sum local = 0.00190449, global = -2.35837e-17, cumulative = 5.40076e-16
rho max/min : 1.21396 1.13636
DILUPBiCG:  Solving for omega, Initial residual = 8.47398e-05, Final residual = 7.53783e-06, No Iterations 1
DILUPBiCG:  Solving for k, Initial residual = 0.0119724, Final residual = 0.000407346, No Iterations 1
ExecutionTime = 51.64 s  ClockTime = 51 s

Time = 125

DILUPBiCG:  Solving for h, Initial residual = 0.00207185, Final residual = 1.52453e-05, No Iterations 1
GAMG:  Solving for p_rgh, Initial residual = 0.00508957, Final residual = 2.49896e-05, No Iterations 2
time step continuity errors : sum local = 0.0018753, global = -1.71317e-17, cumulative = 5.22944e-16
rho max/min : 1.21398 1.13637
DILUPBiCG:  Solving for omega, Initial residual = 8.37497e-05, Final residual = 2.99468e-06, No Iterations 1
DILUPBiCG:  Solving for k, Initial residual = 0.0118561, Final residual = 0.000403873, No Iterations 1
ExecutionTime = 52.02 s  ClockTime = 52 s

Time = 126

DILUPBiCG:  Solving for h, Initial residual = 0.00206333, Final residual = 1.53689e-05, No Iterations 1
GAMG:  Solving for p_rgh, Initial residual = 0.00501108, Final residual = 2.48601e-05, No Iterations 2
time step continuity errors : sum local = 0.00186124, global = -4.06097e-17, cumulative = 4.82334e-16
rho max/min : 1.21399 1.13639
DILUPBiCG:  Solving for omega, Initial residual = 8.18214e-05, Final residual = 7.32069e-06, No Iterations 1
DILUPBiCG:  Solving for k, Initial residual = 0.0117316, Final residual = 0.000396205, No Iterations 1
ExecutionTime = 52.41 s  ClockTime = 52 s

Time = 127

DILUPBiCG:  Solving for h, Initial residual = 0.00205476, Final residual = 1.54189e-05, No Iterations 1
GAMG:  Solving for p_rgh, Initial residual = 0.00496114, Final residual = 2.47606e-05, No Iterations 2
time step continuity errors : sum local = 0.00184804, global = -8.3901e-18, cumulative = 4.73944e-16
rho max/min : 1.21401 1.13641
DILUPBiCG:  Solving for omega, Initial residual = 8.26696e-05, Final residual = 2.97997e-06, No Iterations 1
DILUPBiCG:  Solving for k, Initial residual = 0.0116328, Final residual = 0.000397591, No Iterations 1
ExecutionTime = 52.8 s  ClockTime = 53 s

Time = 128

DILUPBiCG:  Solving for h, Initial residual = 0.00204546, Final residual = 1.51458e-05, No Iterations 1
GAMG:  Solving for p_rgh, Initial residual = 0.00490728, Final residual = 2.44713e-05, No Iterations 2
time step continuity errors : sum local = 0.00181753, global = -4.54604e-17, cumulative = 4.28484e-16
rho max/min : 1.21403 1.13642
DILUPBiCG:  Solving for omega, Initial residual = 8.29696e-05, Final residual = 7.9258e-06, No Iterations 1
DILUPBiCG:  Solving for k, Initial residual = 0.0115115, Final residual = 0.000389017, No Iterations 1
ExecutionTime = 53.19 s  ClockTime = 53 s

Time = 129

DILUPBiCG:  Solving for h, Initial residual = 0.00203853, Final residual = 1.47137e-05, No Iterations 1
GAMG:  Solving for p_rgh, Initial residual = 0.00486057, Final residual = 2.42166e-05, No Iterations 2
time step continuity errors : sum local = 0.00179826, global = 1.65491e-17, cumulative = 4.45033e-16
rho max/min : 1.21404 1.13644
DILUPBiCG:  Solving for omega, Initial residual = 8.2503e-05, Final residual = 3.20418e-06, No Iterations 1
DILUPBiCG:  Solving for k, Initial residual = 0.0114052, Final residual = 0.000387542, No Iterations 1
ExecutionTime = 53.57 s  ClockTime = 53 s

Time = 130

[...]
time step continuity errors : sum local = 0.000776835, global = -2.21833e-17, cumulative = 1.35448e-15
rho max/min : 1.21933 1.14139
DILUPBiCG:  Solving for omega, Initial residual = 1.40868e-05, Final residual = 6.55081e-07, No Iterations 1
DILUPBiCG:  Solving for k, Initial residual = 0.000464743, Final residual = 2.11585e-06, No Iterations 2
ExecutionTime = 378.2 s  ClockTime = 379 s

Time = 969

DILUPBiCG:  Solving for h, Initial residual = 0.000449717, Final residual = 3.77247e-06, No Iterations 1
GAMG:  Solving for p_rgh, Initial residual = 0.000741087, Final residual = 2.13505e-06, No Iterations 2
time step continuity errors : sum local = 0.000235531, global = 4.67102e-17, cumulative = 1.40119e-15
rho max/min : 1.21934 1.1414
DILUPBiCG:  Solving for omega, Initial residual = 1.46657e-05, Final residual = 7.99854e-07, No Iterations 1
DILUPBiCG:  Solving for k, Initial residual = 0.000462837, Final residual = 1.98972e-06, No Iterations 2
ExecutionTime = 378.56 s  ClockTime = 380 s

Time = 970

DILUPBiCG:  Solving for h, Initial residual = 0.000450127, Final residual = 2.09317e-06, No Iterations 1
GAMG:  Solving for p_rgh, Initial residual = 0.000745708, Final residual = 7.04416e-06, No Iterations 1
time step continuity errors : sum local = 0.000775424, global = -1.27062e-17, cumulative = 1.38848e-15
rho max/min : 1.21934 1.1414
DILUPBiCG:  Solving for omega, Initial residual = 1.40267e-05, Final residual = 6.64833e-07, No Iterations 1
DILUPBiCG:  Solving for k, Initial residual = 0.000461078, Final residual = 2.09674e-06, No Iterations 2
ExecutionTime = 378.89 s  ClockTime = 380 s

Time = 971

DILUPBiCG:  Solving for h, Initial residual = 0.000449425, Final residual = 3.6387e-06, No Iterations 1
GAMG:  Solving for p_rgh, Initial residual = 0.000740802, Final residual = 2.15101e-06, No Iterations 2
time step continuity errors : sum local = 0.000237409, global = -7.20048e-18, cumulative = 1.38128e-15
rho max/min : 1.21935 1.1414
DILUPBiCG:  Solving for omega, Initial residual = 1.45616e-05, Final residual = 7.97423e-07, No Iterations 1
DILUPBiCG:  Solving for k, Initial residual = 0.000459933, Final residual = 2.01653e-06, No Iterations 2
ExecutionTime = 379.25 s  ClockTime = 380 s

Time = 972

DILUPBiCG:  Solving for h, Initial residual = 0.00044974, Final residual = 2.08644e-06, No Iterations 1
GAMG:  Solving for p_rgh, Initial residual = 0.000745215, Final residual = 7.01699e-06, No Iterations 1
time step continuity errors : sum local = 0.000773158, global = -3.25059e-18, cumulative = 1.37803e-15
rho max/min : 1.21935 1.14141
DILUPBiCG:  Solving for omega, Initial residual = 1.40955e-05, Final residual = 6.53986e-07, No Iterations 1
DILUPBiCG:  Solving for k, Initial residual = 0.000457122, Final residual = 2.05868e-06, No Iterations 2
ExecutionTime = 379.59 s  ClockTime = 381 s

Time = 973

DILUPBiCG:  Solving for h, Initial residual = 0.000449016, Final residual = 3.69156e-06, No Iterations 1
GAMG:  Solving for p_rgh, Initial residual = 0.000739238, Final residual = 2.15364e-06, No Iterations 2
time step continuity errors : sum local = 0.00023772, global = 9.06356e-19, cumulative = 1.37894e-15
rho max/min : 1.21936 1.14141
DILUPBiCG:  Solving for omega, Initial residual = 1.47335e-05, Final residual = 8.23212e-07, No Iterations 1
DILUPBiCG:  Solving for k, Initial residual = 0.000455812, Final residual = 2.00093e-06, No Iterations 2
ExecutionTime = 379.97 s  ClockTime = 381 s

Time = 974

DILUPBiCG:  Solving for h, Initial residual = 0.000449512, Final residual = 2.10613e-06, No Iterations 1
GAMG:  Solving for p_rgh, Initial residual = 0.00074562, Final residual = 7.00495e-06, No Iterations 1
time step continuity errors : sum local = 0.000772279, global = 7.56915e-18, cumulative = 1.38651e-15
rho max/min : 1.21936 1.14142
DILUPBiCG:  Solving for omega, Initial residual = 1.39356e-05, Final residual = 6.86583e-07, No Iterations 1
DILUPBiCG:  Solving for k, Initial residual = 0.000453292, Final residual = 1.9591e-06, No Iterations 2
ExecutionTime = 380.3 s  ClockTime = 381 s

Time = 975

DILUPBiCG:  Solving for h, Initial residual = 0.000448783, Final residual = 3.62373e-06, No Iterations 1
GAMG:  Solving for p_rgh, Initial residual = 0.000742608, Final residual = 2.13709e-06, No Iterations 2
time step continuity errors : sum local = 0.000236262, global = 7.82662e-18, cumulative = 1.39433e-15
rho max/min : 1.21937 1.14142
DILUPBiCG:  Solving for omega, Initial residual = 1.46811e-05, Final residual = 8.02518e-07, No Iterations 1
DILUPBiCG:  Solving for k, Initial residual = 0.000452077, Final residual = 1.93214e-06, No Iterations 2
ExecutionTime = 380.67 s  ClockTime = 382 s

Time = 976

DILUPBiCG:  Solving for h, Initial residual = 0.000449185, Final residual = 2.10898e-06, No Iterations 1
GAMG:  Solving for p_rgh, Initial residual = 0.000748555, Final residual = 6.99906e-06, No Iterations 1
time step continuity errors : sum local = 0.000771506, global = -3.04947e-17, cumulative = 1.36384e-15
rho max/min : 1.21937 1.14143
DILUPBiCG:  Solving for omega, Initial residual = 1.39794e-05, Final residual = 6.06185e-07, No Iterations 1
DILUPBiCG:  Solving for k, Initial residual = 0.000449674, Final residual = 1.925e-06, No Iterations 2
ExecutionTime = 381 s  ClockTime = 382 s

Time = 977

DILUPBiCG:  Solving for h, Initial residual = 0.000448418, Final residual = 3.62047e-06, No Iterations 1
GAMG:  Solving for p_rgh, Initial residual = 0.000739921, Final residual = 2.16974e-06, No Iterations 2
time step continuity errors : sum local = 0.000239908, global = 2.01033e-17, cumulative = 1.38394e-15
rho max/min : 1.21938 1.14143
DILUPBiCG:  Solving for omega, Initial residual = 1.45956e-05, Final residual = 7.55888e-07, No Iterations 1
DILUPBiCG:  Solving for k, Initial residual = 0.000448561, Final residual = 1.86087e-06, No Iterations 2
ExecutionTime = 381.37 s  ClockTime = 382 s

Time = 978

DILUPBiCG:  Solving for h, Initial residual = 0.000448961, Final residual = 2.11879e-06, No Iterations 1
GAMG:  Solving for p_rgh, Initial residual = 0.000747594, Final residual = 7.05013e-06, No Iterations 1
time step continuity errors : sum local = 0.000777607, global = 9.38739e-18, cumulative = 1.39333e-15
rho max/min : 1.21938 1.14144
DILUPBiCG:  Solving for omega, Initial residual = 1.38487e-05, Final residual = 6.33273e-07, No Iterations 1
DILUPBiCG:  Solving for k, Initial residual = 0.000446069, Final residual = 1.92592e-06, No Iterations 2
ExecutionTime = 381.7 s  ClockTime = 383 s

Time = 979

DILUPBiCG:  Solving for h, Initial residual = 0.000448307, Final residual = 3.6268e-06, No Iterations 1
GAMG:  Solving for p_rgh, Initial residual = 0.000739203, Final residual = 2.21378e-06, No Iterations 2
time step continuity errors : sum local = 0.000244736, global = -1.58744e-17, cumulative = 1.37746e-15
rho max/min : 1.21939 1.14144
DILUPBiCG:  Solving for omega, Initial residual = 1.46187e-05, Final residual = 7.55059e-07, No Iterations 1
DILUPBiCG:  Solving for k, Initial residual = 0.000445352, Final residual = 1.8587e-06, No Iterations 2
ExecutionTime = 382.07 s  ClockTime = 383 s

Time = 980

DILUPBiCG:  Solving for h, Initial residual = 0.00044883, Final residual = 2.11881e-06, No Iterations 1
GAMG:  Solving for p_rgh, Initial residual = 0.000747025, Final residual = 7.08762e-06, No Iterations 1
time step continuity errors : sum local = 0.000781359, global = -2.20414e-18, cumulative = 1.37525e-15
rho max/min : 1.21939 1.14145
DILUPBiCG:  Solving for omega, Initial residual = 1.39399e-05, Final residual = 6.02337e-07, No Iterations 1
DILUPBiCG:  Solving for k, Initial residual = 0.000443058, Final residual = 1.92049e-06, No Iterations 2
ExecutionTime = 382.4 s  ClockTime = 383 s

Time = 981

DILUPBiCG:  Solving for h, Initial residual = 0.000448114, Final residual = 3.67641e-06, No Iterations 1
GAMG:  Solving for p_rgh, Initial residual = 0.000736629, Final residual = 2.21156e-06, No Iterations 2
time step continuity errors : sum local = 0.000244434, global = 7.75841e-18, cumulative = 1.38301e-15
rho max/min : 1.2194 1.14145
DILUPBiCG:  Solving for omega, Initial residual = 1.45155e-05, Final residual = 7.21929e-07, No Iterations 1
DILUPBiCG:  Solving for k, Initial residual = 0.000441424, Final residual = 1.71632e-06, No Iterations 2
ExecutionTime = 382.77 s  ClockTime = 384 s

Time = 982

DILUPBiCG:  Solving for h, Initial residual = 0.000448486, Final residual = 2.12996e-06, No Iterations 1
GAMG:  Solving for p_rgh, Initial residual = 0.000741453, Final residual = 7.04611e-06, No Iterations 1
time step continuity errors : sum local = 0.000777529, global = 2.30301e-17, cumulative = 1.40604e-15
rho max/min : 1.2194 1.14146
DILUPBiCG:  Solving for omega, Initial residual = 1.37734e-05, Final residual = 6.18779e-07, No Iterations 1
DILUPBiCG:  Solving for k, Initial residual = 0.000439176, Final residual = 1.81035e-06, No Iterations 2
ExecutionTime = 383.11 s  ClockTime = 384 s

Time = 983

DILUPBiCG:  Solving for h, Initial residual = 0.000447883, Final residual = 3.61559e-06, No Iterations 1
GAMG:  Solving for p_rgh, Initial residual = 0.000736493, Final residual = 2.16756e-06, No Iterations 2
time step continuity errors : sum local = 0.000240144, global = 3.17784e-17, cumulative = 1.43782e-15
rho max/min : 1.21941 1.14146
DILUPBiCG:  Solving for omega, Initial residual = 1.45964e-05, Final residual = 7.49293e-07, No Iterations 1
DILUPBiCG:  Solving for k, Initial residual = 0.000437647, Final residual = 1.74969e-06, No Iterations 2
ExecutionTime = 383.47 s  ClockTime = 384 s

Time = 984

DILUPBiCG:  Solving for h, Initial residual = 0.000448386, Final residual = 2.1429e-06, No Iterations 1
GAMG:  Solving for p_rgh, Initial residual = 0.000741598, Final residual = 7.01045e-06, No Iterations 1
time step continuity errors : sum local = 0.000774297, global = 2.98483e-17, cumulative = 1.46767e-15
rho max/min : 1.21941 1.14147
DILUPBiCG:  Solving for omega, Initial residual = 1.38422e-05, Final residual = 6.26104e-07, No Iterations 1
DILUPBiCG:  Solving for k, Initial residual = 0.00043537, Final residual = 1.73187e-06, No Iterations 2
ExecutionTime = 383.81 s  ClockTime = 385 s

Time = 985

DILUPBiCG:  Solving for h, Initial residual = 0.000447637, Final residual = 3.59117e-06, No Iterations 1
GAMG:  Solving for p_rgh, Initial residual = 0.000735002, Final residual = 2.16176e-06, No Iterations 2
time step continuity errors : sum local = 0.0002394, global = -4.36833e-18, cumulative = 1.4633e-15
rho max/min : 1.21942 1.14147
DILUPBiCG:  Solving for omega, Initial residual = 1.44782e-05, Final residual = 7.20144e-07, No Iterations 1
DILUPBiCG:  Solving for k, Initial residual = 0.000433238, Final residual = 1.59475e-06, No Iterations 2
ExecutionTime = 384.17 s  ClockTime = 385 s

Time = 986

DILUPBiCG:  Solving for h, Initial residual = 0.000447996, Final residual = 2.14477e-06, No Iterations 1
GAMG:  Solving for p_rgh, Initial residual = 0.000736929, Final residual = 6.98576e-06, No Iterations 1
time step continuity errors : sum local = 0.000771276, global = -1.5582e-17, cumulative = 1.44772e-15
rho max/min : 1.21942 1.14147
DILUPBiCG:  Solving for omega, Initial residual = 1.37322e-05, Final residual = 6.34501e-07, No Iterations 1
DILUPBiCG:  Solving for k, Initial residual = 0.000431248, Final residual = 1.68024e-06, No Iterations 2
ExecutionTime = 384.51 s  ClockTime = 386 s

Time = 987

DILUPBiCG:  Solving for h, Initial residual = 0.000447229, Final residual = 3.59049e-06, No Iterations 1
GAMG:  Solving for p_rgh, Initial residual = 0.000734127, Final residual = 2.12527e-06, No Iterations 2
time step continuity errors : sum local = 0.000235182, global = 2.83797e-17, cumulative = 1.4761e-15
rho max/min : 1.21943 1.14148
DILUPBiCG:  Solving for omega, Initial residual = 1.43642e-05, Final residual = 7.1436e-07, No Iterations 1
DILUPBiCG:  Solving for k, Initial residual = 0.000429839, Final residual = 1.65514e-06, No Iterations 2
ExecutionTime = 384.87 s  ClockTime = 386 s

Time = 988

DILUPBiCG:  Solving for h, Initial residual = 0.000447694, Final residual = 2.12555e-06, No Iterations 1
GAMG:  Solving for p_rgh, Initial residual = 0.000736137, Final residual = 6.98704e-06, No Iterations 1
time step continuity errors : sum local = 0.000771577, global = 1.19866e-17, cumulative = 1.48808e-15
rho max/min : 1.21943 1.14148
DILUPBiCG:  Solving for omega, Initial residual = 1.37467e-05, Final residual = 6.0361e-07, No Iterations 1
DILUPBiCG:  Solving for k, Initial residual = 0.000427613, Final residual = 1.61114e-06, No Iterations 2
ExecutionTime = 385.21 s  ClockTime = 386 s

Time = 989

DILUPBiCG:  Solving for h, Initial residual = 0.000447291, Final residual = 3.54774e-06, No Iterations 1
GAMG:  Solving for p_rgh, Initial residual = 0.000733918, Final residual = 2.1125e-06, No Iterations 2
time step continuity errors : sum local = 0.000233588, global = -2.15952e-17, cumulative = 1.46649e-15
rho max/min : 1.21944 1.14149
DILUPBiCG:  Solving for omega, Initial residual = 1.43342e-05, Final residual = 6.97695e-07, No Iterations 1
DILUPBiCG:  Solving for k, Initial residual = 0.000425847, Final residual = 1.53826e-06, No Iterations 2
ExecutionTime = 385.57 s  ClockTime = 387 s

Time = 990

DILUPBiCG:  Solving for h, Initial residual = 0.000447721, Final residual = 2.14595e-06, No Iterations 1
GAMG:  Solving for p_rgh, Initial residual = 0.000737158, Final residual = 7.02822e-06, No Iterations 1
time step continuity errors : sum local = 0.000775618, global = -2.80854e-17, cumulative = 1.4384e-15
rho max/min : 1.21944 1.14149
DILUPBiCG:  Solving for omega, Initial residual = 1.36013e-05, Final residual = 6.13797e-07, No Iterations 1
DILUPBiCG:  Solving for k, Initial residual = 0.000424033, Final residual = 1.49126e-06, No Iterations 2
ExecutionTime = 385.91 s  ClockTime = 387 s

Time = 991

DILUPBiCG:  Solving for h, Initial residual = 0.000447089, Final residual = 3.57918e-06, No Iterations 1
GAMG:  Solving for p_rgh, Initial residual = 0.000732064, Final residual = 2.12662e-06, No Iterations 2
time step continuity errors : sum local = 0.000235305, global = 4.99098e-17, cumulative = 1.48831e-15
rho max/min : 1.21945 1.1415
DILUPBiCG:  Solving for omega, Initial residual = 1.41828e-05, Final residual = 6.91288e-07, No Iterations 1
DILUPBiCG:  Solving for k, Initial residual = 0.000422913, Final residual = 1.59625e-06, No Iterations 2
ExecutionTime = 386.28 s  ClockTime = 387 s

Time = 992

DILUPBiCG:  Solving for h, Initial residual = 0.000447733, Final residual = 2.173e-06, No Iterations 1
GAMG:  Solving for p_rgh, Initial residual = 0.000739183, Final residual = 7.09524e-06, No Iterations 1
time step continuity errors : sum local = 0.000783251, global = 4.97298e-18, cumulative = 1.49329e-15
rho max/min : 1.21945 1.1415
DILUPBiCG:  Solving for omega, Initial residual = 1.37351e-05, Final residual = 5.9008e-07, No Iterations 1
DILUPBiCG:  Solving for k, Initial residual = 0.000420978, Final residual = 1.37481e-06, No Iterations 2
ExecutionTime = 386.62 s  ClockTime = 388 s

Time = 993

DILUPBiCG:  Solving for h, Initial residual = 0.000447056, Final residual = 3.75776e-06, No Iterations 1
GAMG:  Solving for p_rgh, Initial residual = 0.000736001, Final residual = 2.11632e-06, No Iterations 2
time step continuity errors : sum local = 0.00023445, global = 3.44529e-17, cumulative = 1.52774e-15
rho max/min : 1.21946 1.14151
DILUPBiCG:  Solving for omega, Initial residual = 1.42342e-05, Final residual = 6.83129e-07, No Iterations 1
DILUPBiCG:  Solving for k, Initial residual = 0.00041926, Final residual = 1.41376e-06, No Iterations 2
ExecutionTime = 386.99 s  ClockTime = 388 s

Time = 994

DILUPBiCG:  Solving for h, Initial residual = 0.00044734, Final residual = 2.1744e-06, No Iterations 1
GAMG:  Solving for p_rgh, Initial residual = 0.000737728, Final residual = 7.12856e-06, No Iterations 1
time step continuity errors : sum local = 0.000786681, global = 3.03903e-17, cumulative = 1.55813e-15
rho max/min : 1.21946 1.14151
DILUPBiCG:  Solving for omega, Initial residual = 1.38519e-05, Final residual = 5.97162e-07, No Iterations 1
DILUPBiCG:  Solving for k, Initial residual = 0.000417904, Final residual = 1.3805e-06, No Iterations 2
ExecutionTime = 387.32 s  ClockTime = 388 s

Time = 995

DILUPBiCG:  Solving for h, Initial residual = 0.000446737, Final residual = 3.87755e-06, No Iterations 1
GAMG:  Solving for p_rgh, Initial residual = 0.000733863, Final residual = 2.13223e-06, No Iterations 2
time step continuity errors : sum local = 0.000235916, global = 2.52202e-17, cumulative = 1.58335e-15
rho max/min : 1.21947 1.14152
DILUPBiCG:  Solving for omega, Initial residual = 1.44024e-05, Final residual = 6.8633e-07, No Iterations 1
DILUPBiCG:  Solving for k, Initial residual = 0.000416373, Final residual = 1.58846e-06, No Iterations 2
ExecutionTime = 387.68 s  ClockTime = 389 s

Time = 996

DILUPBiCG:  Solving for h, Initial residual = 0.000447049, Final residual = 2.17755e-06, No Iterations 1
GAMG:  Solving for p_rgh, Initial residual = 0.000737804, Final residual = 7.16351e-06, No Iterations 1
time step continuity errors : sum local = 0.000790636, global = 5.69714e-18, cumulative = 1.58905e-15
rho max/min : 1.21947 1.14152
DILUPBiCG:  Solving for omega, Initial residual = 1.37859e-05, Final residual = 5.96384e-07, No Iterations 1
DILUPBiCG:  Solving for k, Initial residual = 0.000414606, Final residual = 1.25698e-06, No Iterations 2
ExecutionTime = 388.03 s  ClockTime = 389 s

Time = 997

DILUPBiCG:  Solving for h, Initial residual = 0.000446299, Final residual = 3.93212e-06, No Iterations 1
GAMG:  Solving for p_rgh, Initial residual = 0.000730478, Final residual = 2.14996e-06, No Iterations 2
time step continuity errors : sum local = 0.000238084, global = 6.6843e-18, cumulative = 1.59573e-15
rho max/min : 1.21948 1.14153
DILUPBiCG:  Solving for omega, Initial residual = 1.4417e-05, Final residual = 7.07205e-07, No Iterations 1
DILUPBiCG:  Solving for k, Initial residual = 0.000412724, Final residual = 1.43275e-06, No Iterations 2
ExecutionTime = 388.39 s  ClockTime = 389 s

Time = 998

DILUPBiCG:  Solving for h, Initial residual = 0.000446782, Final residual = 2.16235e-06, No Iterations 1
GAMG:  Solving for p_rgh, Initial residual = 0.000735229, Final residual = 7.23202e-06, No Iterations 1
time step continuity errors : sum local = 0.00079858, global = -1.16711e-17, cumulative = 1.58406e-15
rho max/min : 1.21948 1.14153
DILUPBiCG:  Solving for omega, Initial residual = 1.38224e-05, Final residual = 6.03947e-07, No Iterations 1
DILUPBiCG:  Solving for k, Initial residual = 0.000411097, Final residual = 1.13822e-06, No Iterations 2
ExecutionTime = 388.73 s  ClockTime = 390 s

Time = 999

DILUPBiCG:  Solving for h, Initial residual = 0.00044614, Final residual = 4.07229e-06, No Iterations 1
GAMG:  Solving for p_rgh, Initial residual = 0.000726381, Final residual = 2.17512e-06, No Iterations 2
time step continuity errors : sum local = 0.000241134, global = -8.88849e-19, cumulative = 1.58317e-15
rho max/min : 1.21949 1.14153
DILUPBiCG:  Solving for omega, Initial residual = 1.44101e-05, Final residual = 7.07105e-07, No Iterations 1
DILUPBiCG:  Solving for k, Initial residual = 0.000409213, Final residual = 1.41803e-06, No Iterations 2
ExecutionTime = 389.09 s  ClockTime = 390 s

Time = 1000

DILUPBiCG:  Solving for h, Initial residual = 0.000446574, Final residual = 2.16528e-06, No Iterations 1
GAMG:  Solving for p_rgh, Initial residual = 0.000730554, Final residual = 7.3042e-06, No Iterations 1
time step continuity errors : sum local = 0.000806672, global = 1.39253e-17, cumulative = 1.5971e-15
rho max/min : 1.21949 1.14154
DILUPBiCG:  Solving for omega, Initial residual = 1.37884e-05, Final residual = 6.38337e-07, No Iterations 1
DILUPBiCG:  Solving for k, Initial residual = 0.000407218, Final residual = 1.07497e-06, No Iterations 2
ExecutionTime = 390.12 s  ClockTime = 391 s

End

