/*---------------------------------------------------------------------------*\
| =========                 |                                                 |
| \\      /  F ield         | OpenFOAM: The Open Source CFD Toolbox           |
|  \\    /   O peration     | Version:  2.0.x                                 |
|   \\  /    A nd           | Web:      www.OpenFOAM.org                      |
|    \\/     M anipulation  |                                                 |
\*---------------------------------------------------------------------------*/
Build  : 2.0.x-97cf67d69932
Exec   : buoyantSimpleFoam
Date   : Dec 01 2014
Time   : 16:28:11
Host   : mobil
PID    : 11927
Case   : /home/go/OpenFOAM/OpenFOAM-2.0.x/tutorials/heatTransfer/buoyantSimpleFoam/buoyantCavity
nProcs : 1
sigFpe : Enabling floating point exception trapping (FOAM_SIGFPE).
fileModificationChecking : Monitoring run-time modified files using timeStampMaster
allowSystemOperations : Disallowing user-supplied system call operations

// * * * * * * * * * * * * * * * * * * * * * * * * * * * * * * * * * * * * * //
Create time

Create mesh for time = 0


Reading g
Reading thermophysical properties

Selecting thermodynamics package hPsiThermo<pureMixture<constTransport<specieThermo<hConstThermo<perfectGas>>>>>
Reading field U

Reading/calculating face flux field phi

Creating turbulence model

Selecting RAS turbulence model kOmegaSST
kOmegaSSTCoeffs
{
    alphaK1         0.85034;
    alphaK2         1;
    alphaOmega1     0.5;
    alphaOmega2     0.85616;
    Prt             1;
    gamma1          0.5532;
    gamma2          0.4403;
    beta1           0.075;
    beta2           0.0828;
    betaStar        0.09;
    a1              0.31;
    c1              10;
}

Calculating field g.h

Reading field p_rgh


SIMPLE: convergence criteria
    field p_rgh	 tolerance 0.01
    field U	 tolerance 0.001
    field h	 tolerance 0.001
    field "(k|epsilon|omega)"	 tolerance 0.001


Starting time loop

Time = 1

DILUPBiCG:  Solving for Ux, Initial residual = 1, Final residual = 0.00183458, No Iterations 1
DILUPBiCG:  Solving for Uy, Initial residual = 1, Final residual = 0.000132181, No Iterations 1
DILUPBiCG:  Solving for Uz, Initial residual = 0.999993, Final residual = 0.00200299, No Iterations 1
DILUPBiCG:  Solving for h, Initial residual = 0.999999, Final residual = 0.00181416, No Iterations 1
GAMG:  Solving for p_rgh, Initial residual = 0.953351, Final residual = 0.00827487, No Iterations 3
time step continuity errors : sum local = 0.00421337, global = -6.13534e-18, cumulative = -6.13534e-18
rho max/min : 1.20887 1.13171
DILUPBiCG:  Solving for omega, Initial residual = 0.133711, Final residual = 0.00131332, No Iterations 1
DILUPBiCG:  Solving for k, Initial residual = 1, Final residual = 0.0143265, No Iterations 1
ExecutionTime = 1.11 s  ClockTime = 1 s

Time = 2

DILUPBiCG:  Solving for Ux, Initial residual = 0.757615, Final residual = 0.000553194, No Iterations 1
DILUPBiCG:  Solving for Uy, Initial residual = 0.896446, Final residual = 0.00041956, No Iterations 1
DILUPBiCG:  Solving for Uz, Initial residual = 0.836079, Final residual = 0.000482509, No Iterations 1
DILUPBiCG:  Solving for h, Initial residual = 0.614726, Final residual = 0.000384627, No Iterations 1
GAMG:  Solving for p_rgh, Initial residual = 0.590027, Final residual = 0.00155276, No Iterations 1
time step continuity errors : sum local = 0.158727, global = 5.69204e-17, cumulative = 5.07851e-17
rho max/min : 1.20912 1.13195
DILUPBiCG:  Solving for omega, Initial residual = 0.0211984, Final residual = 0.000447248, No Iterations 1
DILUPBiCG:  Solving for k, Initial residual = 0.635984, Final residual = 0.0168992, No Iterations 1
ExecutionTime = 1.44 s  ClockTime = 1 s

Time = 3

DILUPBiCG:  Solving for Ux, Initial residual = 0.0367465, Final residual = 9.70215e-05, No Iterations 1
DILUPBiCG:  Solving for Uy, Initial residual = 0.0523214, Final residual = 7.73489e-05, No Iterations 1
DILUPBiCG:  Solving for Uz, Initial residual = 0.0609439, Final residual = 9.59222e-05, No Iterations 1
DILUPBiCG:  Solving for h, Initial residual = 0.0400308, Final residual = 0.000254487, No Iterations 1
GAMG:  Solving for p_rgh, Initial residual = 0.357591, Final residual = 0.00259158, No Iterations 1
time step continuity errors : sum local = 0.203675, global = -2.83378e-16, cumulative = -2.32593e-16
rho max/min : 1.20928 1.13208
DILUPBiCG:  Solving for omega, Initial residual = 0.00871895, Final residual = 0.000285407, No Iterations 1
DILUPBiCG:  Solving for k, Initial residual = 0.184286, Final residual = 0.00401368, No Iterations 1
ExecutionTime = 1.76 s  ClockTime = 2 s

Time = 4

DILUPBiCG:  Solving for Ux, Initial residual = 0.313554, Final residual = 0.0018886, No Iterations 1
DILUPBiCG:  Solving for Uy, Initial residual = 0.052922, Final residual = 0.000202955, No Iterations 1
DILUPBiCG:  Solving for Uz, Initial residual = 0.0624217, Final residual = 0.000189353, No Iterations 1
DILUPBiCG:  Solving for h, Initial residual = 0.035778, Final residual = 0.000242143, No Iterations 1
GAMG:  Solving for p_rgh, Initial residual = 0.219301, Final residual = 0.00208483, No Iterations 3
time step continuity errors : sum local = 0.185604, global = -3.1886e-16, cumulative = -5.51453e-16
rho max/min : 1.20944 1.13216
DILUPBiCG:  Solving for omega, Initial residual = 0.00586492, Final residual = 0.000208476, No Iterations 1
DILUPBiCG:  Solving for k, Initial residual = 0.167255, Final residual = 0.00252896, No Iterations 1
ExecutionTime = 2.17 s  ClockTime = 145 s

Time = 5

DILUPBiCG:  Solving for Ux, Initial residual = 0.117165, Final residual = 0.000807646, No Iterations 1
DILUPBiCG:  Solving for Uy, Initial residual = 0.0337841, Final residual = 0.000179796, No Iterations 1
DILUPBiCG:  Solving for Uz, Initial residual = 0.148999, Final residual = 0.000508845, No Iterations 1
DILUPBiCG:  Solving for h, Initial residual = 0.037401, Final residual = 0.000214763, No Iterations 1
GAMG:  Solving for p_rgh, Initial residual = 0.122448, Final residual = 0.000823774, No Iterations 8
time step continuity errors : sum local = 0.0862196, global = 6.64951e-17, cumulative = -4.84958e-16
rho max/min : 1.20964 1.13215
DILUPBiCG:  Solving for omega, Initial residual = 0.00599454, Final residual = 0.000271071, No Iterations 1
DILUPBiCG:  Solving for k, Initial residual = 0.106175, Final residual = 0.00354843, No Iterations 1
ExecutionTime = 2.68 s  ClockTime = 145 s

Time = 6

DILUPBiCG:  Solving for Ux, Initial residual = 0.164729, Final residual = 0.00101192, No Iterations 1
DILUPBiCG:  Solving for Uy, Initial residual = 0.26812, Final residual = 0.00139616, No Iterations 1
DILUPBiCG:  Solving for Uz, Initial residual = 0.3611, Final residual = 0.00158455, No Iterations 1
DILUPBiCG:  Solving for h, Initial residual = 0.0403571, Final residual = 0.000233299, No Iterations 1
GAMG:  Solving for p_rgh, Initial residual = 0.0625349, Final residual = 0.000429727, No Iterations 3
time step continuity errors : sum local = 0.0644481, global = -2.42645e-16, cumulative = -7.27604e-16
rho max/min : 1.20975 1.13226
DILUPBiCG:  Solving for omega, Initial residual = 0.00681965, Final residual = 0.000314987, No Iterations 1
DILUPBiCG:  Solving for k, Initial residual = 0.305588, Final residual = 0.0062524, No Iterations 1
ExecutionTime = 3.08 s  ClockTime = 146 s

Time = 7

DILUPBiCG:  Solving for Ux, Initial residual = 0.171938, Final residual = 0.00106815, No Iterations 1
DILUPBiCG:  Solving for Uy, Initial residual = 0.365928, Final residual = 0.00207865, No Iterations 1
DILUPBiCG:  Solving for Uz, Initial residual = 0.159649, Final residual = 0.000785493, No Iterations 1
DILUPBiCG:  Solving for h, Initial residual = 0.036593, Final residual = 0.000206735, No Iterations 1
GAMG:  Solving for p_rgh, Initial residual = 0.048102, Final residual = 0.00038095, No Iterations 11
time step continuity errors : sum local = 0.0741427, global = -3.80408e-16, cumulative = -1.10801e-15
rho max/min : 1.20978 1.13244
DILUPBiCG:  Solving for omega, Initial residual = 0.00477868, Final residual = 0.000222245, No Iterations 1
DILUPBiCG:  Solving for k, Initial residual = 0.192383, Final residual = 0.00597393, No Iterations 1
ExecutionTime = 3.68 s  ClockTime = 146 s

Time = 8

DILUPBiCG:  Solving for Ux, Initial residual = 0.130259, Final residual = 0.00081375, No Iterations 1
DILUPBiCG:  Solving for Uy, Initial residual = 0.0281766, Final residual = 0.00021033, No Iterations 1
DILUPBiCG:  Solving for Uz, Initial residual = 0.191388, Final residual = 0.00104378, No Iterations 1
DILUPBiCG:  Solving for h, Initial residual = 0.0295911, Final residual = 0.000256507, No Iterations 1
GAMG:  Solving for p_rgh, Initial residual = 0.0376013, Final residual = 0.000353388, No Iterations 7
time step continuity errors : sum local = 0.0653984, global = -4.27923e-17, cumulative = -1.1508e-15
rho max/min : 1.20985 1.13256
DILUPBiCG:  Solving for omega, Initial residual = 0.00289047, Final residual = 0.00013813, No Iterations 1
DILUPBiCG:  Solving for k, Initial residual = 0.130444, Final residual = 0.00607489, No Iterations 1
ExecutionTime = 4.22 s  ClockTime = 147 s

Time = 9

DILUPBiCG:  Solving for Ux, Initial residual = 0.12706, Final residual = 0.000761526, No Iterations 1
DILUPBiCG:  Solving for Uy, Initial residual = 0.132709, Final residual = 0.000676161, No Iterations 1
DILUPBiCG:  Solving for Uz, Initial residual = 0.125222, Final residual = 0.000680856, No Iterations 1
DILUPBiCG:  Solving for h, Initial residual = 0.0236898, Final residual = 0.000195752, No Iterations 1
GAMG:  Solving for p_rgh, Initial residual = 0.0288318, Final residual = 0.000248824, No Iterations 2
time step continuity errors : sum local = 0.0471872, global = -3.89186e-17, cumulative = -1.18972e-15
rho max/min : 1.20994 1.13264
DILUPBiCG:  Solving for omega, Initial residual = 0.00257303, Final residual = 0.000121683, No Iterations 1
DILUPBiCG:  Solving for k, Initial residual = 0.0900714, Final residual = 0.00422333, No Iterations 1
ExecutionTime = 4.63 s  ClockTime = 147 s

Time = 10

DILUPBiCG:  Solving for Ux, Initial residual = 0.141377, Final residual = 0.000829718, No Iterations 1
DILUPBiCG:  Solving for Uy, Initial residual = 0.156519, Final residual = 0.00076407, No Iterations 1
DILUPBiCG:  Solving for Uz, Initial residual = 0.165052, Final residual = 0.000854479, No Iterations 1
DILUPBiCG:  Solving for h, Initial residual = 0.0194883, Final residual = 0.000411315, No Iterations 1
GAMG:  Solving for p_rgh, Initial residual = 0.0238306, Final residual = 0.000217201, No Iterations 3
time step continuity errors : sum local = 0.0401152, global = 1.64427e-16, cumulative = -1.0253e-15
rho max/min : 1.21002 1.13271
DILUPBiCG:  Solving for omega, Initial residual = 0.00219783, Final residual = 9.75362e-05, No Iterations 1
DILUPBiCG:  Solving for k, Initial residual = 0.0742237, Final residual = 0.00319949, No Iterations 1
ExecutionTime = 5.03 s  ClockTime = 148 s

Time = 11

DILUPBiCG:  Solving for Ux, Initial residual = 0.185794, Final residual = 0.00119899, No Iterations 1
DILUPBiCG:  Solving for Uy, Initial residual = 0.103789, Final residual = 0.000489122, No Iterations 1
DILUPBiCG:  Solving for Uz, Initial residual = 0.0991275, Final residual = 0.000537196, No Iterations 1
DILUPBiCG:  Solving for h, Initial residual = 0.0167922, Final residual = 0.000119117, No Iterations 1
GAMG:  Solving for p_rgh, Initial residual = 0.0220689, Final residual = 0.000197201, No Iterations 3
time step continuity errors : sum local = 0.0355662, global = 4.23874e-17, cumulative = -9.82908e-16
rho max/min : 1.21013 1.13275
DILUPBiCG:  Solving for omega, Initial residual = 0.00199763, Final residual = 7.73176e-05, No Iterations 1
DILUPBiCG:  Solving for k, Initial residual = 0.0480377, Final residual = 0.00212285, No Iterations 1
ExecutionTime = 5.44 s  ClockTime = 148 s

Time = 12

DILUPBiCG:  Solving for Ux, Initial residual = 0.131682, Final residual = 0.000824556, No Iterations 1
DILUPBiCG:  Solving for Uy, Initial residual = 0.0455592, Final residual = 0.000232403, No Iterations 1
DILUPBiCG:  Solving for Uz, Initial residual = 0.130252, Final residual = 0.000652009, No Iterations 1
DILUPBiCG:  Solving for h, Initial residual = 0.0152445, Final residual = 8.49709e-07, No Iterations 2
GAMG:  Solving for p_rgh, Initial residual = 0.0216385, Final residual = 0.000120813, No Iterations 2
time step continuity errors : sum local = 0.0220899, global = 2.68014e-16, cumulative = -7.14894e-16
rho max/min : 1.21019 1.13282
DILUPBiCG:  Solving for omega, Initial residual = 0.00151011, Final residual = 6.20069e-05, No Iterations 1
DILUPBiCG:  Solving for k, Initial residual = 0.0382603, Final residual = 0.00174122, No Iterations 1
ExecutionTime = 5.84 s  ClockTime = 149 s

Time = 13

DILUPBiCG:  Solving for Ux, Initial residual = 0.122167, Final residual = 0.000657467, No Iterations 1
DILUPBiCG:  Solving for Uy, Initial residual = 0.0486023, Final residual = 0.000233507, No Iterations 1
DILUPBiCG:  Solving for Uz, Initial residual = 0.0551797, Final residual = 0.000301584, No Iterations 1
DILUPBiCG:  Solving for h, Initial residual = 0.0137257, Final residual = 0.000107347, No Iterations 1
GAMG:  Solving for p_rgh, Initial residual = 0.0226489, Final residual = 0.00018028, No Iterations 2
time step continuity errors : sum local = 0.0335676, global = 1.0116e-16, cumulative = -6.13734e-16
rho max/min : 1.21026 1.13288
DILUPBiCG:  Solving for omega, Initial residual = 0.00129673, Final residual = 5.39279e-05, No Iterations 1
DILUPBiCG:  Solving for k, Initial residual = 0.0351874, Final residual = 0.00151569, No Iterations 1
ExecutionTime = 6.24 s  ClockTime = 149 s

Time = 14

DILUPBiCG:  Solving for Ux, Initial residual = 0.0954922, Final residual = 0.000512781, No Iterations 1
DILUPBiCG:  Solving for Uy, Initial residual = 0.0473378, Final residual = 0.000224108, No Iterations 1
DILUPBiCG:  Solving for Uz, Initial residual = 0.0984917, Final residual = 0.000455149, No Iterations 1
DILUPBiCG:  Solving for h, Initial residual = 0.0126, Final residual = 9.54878e-05, No Iterations 1
GAMG:  Solving for p_rgh, Initial residual = 0.0232141, Final residual = 0.000229713, No Iterations 1
time step continuity errors : sum local = 0.0437477, global = 1.2016e-16, cumulative = -4.93574e-16
rho max/min : 1.21032 1.13294
DILUPBiCG:  Solving for omega, Initial residual = 0.00119471, Final residual = 5.04015e-05, No Iterations 1
DILUPBiCG:  Solving for k, Initial residual = 0.030732, Final residual = 0.00131167, No Iterations 1
ExecutionTime = 6.61 s  ClockTime = 149 s

Time = 15

DILUPBiCG:  Solving for Ux, Initial residual = 0.127671, Final residual = 0.000571277, No Iterations 1
DILUPBiCG:  Solving for Uy, Initial residual = 0.0450008, Final residual = 0.00020803, No Iterations 1
DILUPBiCG:  Solving for Uz, Initial residual = 0.0914333, Final residual = 0.000418547, No Iterations 1
DILUPBiCG:  Solving for h, Initial residual = 0.0119722, Final residual = 8.34592e-05, No Iterations 1
GAMG:  Solving for p_rgh, Initial residual = 0.024696, Final residual = 0.000103707, No Iterations 3
time step continuity errors : sum local = 0.0216816, global = 8.51497e-17, cumulative = -4.08424e-16
rho max/min : 1.21038 1.133
DILUPBiCG:  Solving for omega, Initial residual = 0.00107854, Final residual = 4.52925e-05, No Iterations 1
DILUPBiCG:  Solving for k, Initial residual = 0.0249186, Final residual = 0.00106769, No Iterations 1
ExecutionTime = 7.02 s  ClockTime = 150 s

Time = 16

DILUPBiCG:  Solving for Ux, Initial residual = 0.0814459, Final residual = 0.00041522, No Iterations 1
DILUPBiCG:  Solving for Uy, Initial residual = 0.0203662, Final residual = 0.000111702, No Iterations 1
DILUPBiCG:  Solving for Uz, Initial residual = 0.071762, Final residual = 0.000328419, No Iterations 1
DILUPBiCG:  Solving for h, Initial residual = 0.0108923, Final residual = 0.000163481, No Iterations 1
GAMG:  Solving for p_rgh, Initial residual = 0.0246757, Final residual = 0.000245615, No Iterations 1
time step continuity errors : sum local = 0.0487479, global = 9.67878e-17, cumulative = -3.11636e-16
rho max/min : 1.21048 1.13306
DILUPBiCG:  Solving for omega, Initial residual = 0.000965268, Final residual = 3.97494e-05, No Iterations 1
DILUPBiCG:  Solving for k, Initial residual = 0.0208458, Final residual = 0.000916419, No Iterations 1
ExecutionTime = 7.4 s  ClockTime = 150 s

Time = 17

DILUPBiCG:  Solving for Ux, Initial residual = 0.101172, Final residual = 0.000437895, No Iterations 1
DILUPBiCG:  Solving for Uy, Initial residual = 0.019396, Final residual = 0.000102868, No Iterations 1
DILUPBiCG:  Solving for Uz, Initial residual = 0.0610685, Final residual = 0.000261607, No Iterations 1
DILUPBiCG:  Solving for h, Initial residual = 0.0104137, Final residual = 6.989e-05, No Iterations 1
GAMG:  Solving for p_rgh, Initial residual = 0.0246331, Final residual = 0.000209198, No Iterations 2
time step continuity errors : sum local = 0.0419297, global = 1.91513e-16, cumulative = -1.20123e-16
rho max/min : 1.2105 1.13312
DILUPBiCG:  Solving for omega, Initial residual = 0.000888017, Final residual = 3.69923e-05, No Iterations 1
DILUPBiCG:  Solving for k, Initial residual = 0.0179984, Final residual = 0.00075351, No Iterations 1
ExecutionTime = 7.82 s  ClockTime = 151 s

Time = 18

DILUPBiCG:  Solving for Ux, Initial residual = 0.199931, Final residual = 0.000832818, No Iterations 1
DILUPBiCG:  Solving for Uy, Initial residual = 0.0158739, Final residual = 8.02088e-05, No Iterations 1
DILUPBiCG:  Solving for Uz, Initial residual = 0.0499607, Final residual = 0.000234946, No Iterations 1
DILUPBiCG:  Solving for h, Initial residual = 0.00932683, Final residual = 6.10108e-05, No Iterations 1
GAMG:  Solving for p_rgh, Initial residual = 0.0229758, Final residual = 0.000220194, No Iterations 1
time step continuity errors : sum local = 0.0437737, global = 3.29935e-16, cumulative = 2.09812e-16
rho max/min : 1.21056 1.13317
DILUPBiCG:  Solving for omega, Initial residual = 0.000875882, Final residual = 3.41957e-05, No Iterations 1
DILUPBiCG:  Solving for k, Initial residual = 0.0160293, Final residual = 0.00066509, No Iterations 1
ExecutionTime = 8.21 s  ClockTime = 151 s

Time = 19

DILUPBiCG:  Solving for Ux, Initial residual = 0.0629091, Final residual = 0.00030912, No Iterations 1
DILUPBiCG:  Solving for Uy, Initial residual = 0.0146814, Final residual = 7.24568e-05, No Iterations 1
DILUPBiCG:  Solving for Uz, Initial residual = 0.0474631, Final residual = 0.000221682, No Iterations 1
DILUPBiCG:  Solving for h, Initial residual = 0.00904804, Final residual = 6.1082e-05, No Iterations 1
GAMG:  Solving for p_rgh, Initial residual = 0.0219941, Final residual = 0.000190571, No Iterations 2
time step continuity errors : sum local = 0.0369023, global = 8.70275e-17, cumulative = 2.9684e-16
rho max/min : 1.21062 1.13323
DILUPBiCG:  Solving for omega, Initial residual = 0.000743659, Final residual = 2.99267e-05, No Iterations 1
DILUPBiCG:  Solving for k, Initial residual = 0.0146806, Final residual = 0.000585414, No Iterations 1
ExecutionTime = 8.63 s  ClockTime = 151 s

Time = 20

DILUPBiCG:  Solving for Ux, Initial residual = 0.0844571, Final residual = 0.00039364, No Iterations 1
DILUPBiCG:  Solving for Uy, Initial residual = 0.0123493, Final residual = 5.79935e-05, No Iterations 1
DILUPBiCG:  Solving for Uz, Initial residual = 0.0421781, Final residual = 0.000169124, No Iterations 1
DILUPBiCG:  Solving for h, Initial residual = 0.00828424, Final residual = 6.68189e-05, No Iterations 1
GAMG:  Solving for p_rgh, Initial residual = 0.020108, Final residual = 0.000189836, No Iterations 2
time step continuity errors : sum local = 0.0368457, global = 9.1926e-17, cumulative = 3.88766e-16
rho max/min : 1.21066 1.13328
DILUPBiCG:  Solving for omega, Initial residual = 0.000698711, Final residual = 2.73389e-05, No Iterations 1
DILUPBiCG:  Solving for k, Initial residual = 0.0136538, Final residual = 0.000530005, No Iterations 1
ExecutionTime = 9.04 s  ClockTime = 152 s

Time = 21

DILUPBiCG:  Solving for Ux, Initial residual = 0.0519238, Final residual = 0.000255363, No Iterations 1
DILUPBiCG:  Solving for Uy, Initial residual = 0.0139998, Final residual = 5.6914e-05, No Iterations 1
DILUPBiCG:  Solving for Uz, Initial residual = 0.0282001, Final residual = 0.000122963, No Iterations 1
DILUPBiCG:  Solving for h, Initial residual = 0.0078499, Final residual = 6.5595e-05, No Iterations 1
GAMG:  Solving for p_rgh, Initial residual = 0.0183721, Final residual = 0.000108866, No Iterations 3
time step continuity errors : sum local = 0.0208212, global = 1.37456e-16, cumulative = 5.26222e-16
rho max/min : 1.21071 1.13333
DILUPBiCG:  Solving for omega, Initial residual = 0.000745821, Final residual = 2.75463e-05, No Iterations 1
DILUPBiCG:  Solving for k, Initial residual = 0.0153507, Final residual = 0.000568837, No Iterations 1
ExecutionTime = 9.47 s  ClockTime = 152 s

Time = 22

DILUPBiCG:  Solving for Ux, Initial residual = 0.0777448, Final residual = 0.000328457, No Iterations 1
DILUPBiCG:  Solving for Uy, Initial residual = 0.0508539, Final residual = 0.000170799, No Iterations 1
DILUPBiCG:  Solving for Uz, Initial residual = 0.0836265, Final residual = 0.000305068, No Iterations 1
DILUPBiCG:  Solving for h, Initial residual = 0.00732484, Final residual = 4.36302e-05, No Iterations 1
GAMG:  Solving for p_rgh, Initial residual = 0.0169012, Final residual = 0.000123653, No Iterations 1
time step continuity errors : sum local = 0.0222592, global = -7.56989e-17, cumulative = 4.50523e-16
rho max/min : 1.21075 1.13337
DILUPBiCG:  Solving for omega, Initial residual = 0.00066118, Final residual = 2.60827e-05, No Iterations 1
DILUPBiCG:  Solving for k, Initial residual = 0.0165282, Final residual = 0.000596783, No Iterations 1
ExecutionTime = 9.86 s  ClockTime = 153 s

Time = 23

DILUPBiCG:  Solving for Ux, Initial residual = 0.0908117, Final residual = 0.00039676, No Iterations 1
DILUPBiCG:  Solving for Uy, Initial residual = 0.0499719, Final residual = 0.000168985, No Iterations 1
DILUPBiCG:  Solving for Uz, Initial residual = 0.0678238, Final residual = 0.000254892, No Iterations 1
DILUPBiCG:  Solving for h, Initial residual = 0.00714043, Final residual = 4.46646e-05, No Iterations 1
GAMG:  Solving for p_rgh, Initial residual = 0.0161492, Final residual = 0.000139876, No Iterations 3
time step continuity errors : sum local = 0.0245793, global = 7.84505e-17, cumulative = 5.28974e-16
rho max/min : 1.2108 1.13341
DILUPBiCG:  Solving for omega, Initial residual = 0.000551564, Final residual = 2.45437e-05, No Iterations 1
DILUPBiCG:  Solving for k, Initial residual = 0.0164953, Final residual = 0.000568133, No Iterations 1
ExecutionTime = 10.29 s  ClockTime = 153 s

Time = 24

DILUPBiCG:  Solving for Ux, Initial residual = 0.0952027, Final residual = 0.000391493, No Iterations 1
DILUPBiCG:  Solving for Uy, Initial residual = 0.0422078, Final residual = 0.000141856, No Iterations 1
DILUPBiCG:  Solving for Uz, Initial residual = 0.0634858, Final residual = 0.00025609, No Iterations 1
DILUPBiCG:  Solving for h, Initial residual = 0.00667262, Final residual = 4.47241e-05, No Iterations 1
GAMG:  Solving for p_rgh, Initial residual = 0.0147794, Final residual = 0.000117548, No Iterations 5
time step continuity errors : sum local = 0.0195759, global = 9.70606e-17, cumulative = 6.26035e-16
rho max/min : 1.21127 1.13345
DILUPBiCG:  Solving for omega, Initial residual = 0.000502019, Final residual = 1.95763e-05, No Iterations 1
DILUPBiCG:  Solving for k, Initial residual = 0.0140758, Final residual = 0.000477072, No Iterations 1
ExecutionTime = 10.8 s  ClockTime = 154 s

Time = 25

DILUPBiCG:  Solving for Ux, Initial residual = 0.0632583, Final residual = 0.000337804, No Iterations 1
DILUPBiCG:  Solving for Uy, Initial residual = 0.0188597, Final residual = 6.10935e-05, No Iterations 1
DILUPBiCG:  Solving for Uz, Initial residual = 0.0762233, Final residual = 0.000286045, No Iterations 1
DILUPBiCG:  Solving for h, Initial residual = 0.00635907, Final residual = 8.11392e-05, No Iterations 1
GAMG:  Solving for p_rgh, Initial residual = 0.0136337, Final residual = 0.000124766, No Iterations 3
time step continuity errors : sum local = 0.0206734, global = -8.75903e-17, cumulative = 5.38444e-16
rho max/min : 1.21089 1.13349
DILUPBiCG:  Solving for omega, Initial residual = 0.000474021, Final residual = 1.87057e-05, No Iterations 1
DILUPBiCG:  Solving for k, Initial residual = 0.0111912, Final residual = 0.000383746, No Iterations 1
ExecutionTime = 11.23 s  ClockTime = 154 s

Time = 26

DILUPBiCG:  Solving for Ux, Initial residual = 0.0548206, Final residual = 0.000246833, No Iterations 1
DILUPBiCG:  Solving for Uy, Initial residual = 0.0143732, Final residual = 5.80161e-05, No Iterations 1
DILUPBiCG:  Solving for Uz, Initial residual = 0.0338194, Final residual = 0.000159663, No Iterations 1
DILUPBiCG:  Solving for h, Initial residual = 0.00617006, Final residual = 3.74167e-05, No Iterations 1
GAMG:  Solving for p_rgh, Initial residual = 0.0128423, Final residual = 0.000102359, No Iterations 2
time step continuity errors : sum local = 0.0174886, global = 8.25616e-18, cumulative = 5.467e-16
rho max/min : 1.21093 1.13352
DILUPBiCG:  Solving for omega, Initial residual = 0.0004786, Final residual = 1.84593e-05, No Iterations 1
DILUPBiCG:  Solving for k, Initial residual = 0.00983871, Final residual = 0.000330107, No Iterations 1
ExecutionTime = 11.61 s  ClockTime = 154 s

Time = 27

DILUPBiCG:  Solving for Ux, Initial residual = 0.0783969, Final residual = 0.000281562, No Iterations 1
DILUPBiCG:  Solving for Uy, Initial residual = 0.0137996, Final residual = 6.02715e-05, No Iterations 1
DILUPBiCG:  Solving for Uz, Initial residual = 0.0321568, Final residual = 0.000132076, No Iterations 1
DILUPBiCG:  Solving for h, Initial residual = 0.00591953, Final residual = 4.76405e-05, No Iterations 1
GAMG:  Solving for p_rgh, Initial residual = 0.0121294, Final residual = 0.000105359, No Iterations 2
time step continuity errors : sum local = 0.0182081, global = 8.68111e-17, cumulative = 6.33511e-16
rho max/min : 1.21097 1.13356
DILUPBiCG:  Solving for omega, Initial residual = 0.000462014, Final residual = 1.7317e-05, No Iterations 1
DILUPBiCG:  Solving for k, Initial residual = 0.00919651, Final residual = 0.0003007, No Iterations 1
ExecutionTime = 12 s  ClockTime = 155 s

Time = 28

DILUPBiCG:  Solving for Ux, Initial residual = 0.0347787, Final residual = 0.000194318, No Iterations 1
DILUPBiCG:  Solving for Uy, Initial residual = 0.0132714, Final residual = 6.22256e-05, No Iterations 1
DILUPBiCG:  Solving for Uz, Initial residual = 0.0283242, Final residual = 0.000126716, No Iterations 1
DILUPBiCG:  Solving for h, Initial residual = 0.00576081, Final residual = 0.000134145, No Iterations 1
GAMG:  Solving for p_rgh, Initial residual = 0.0116898, Final residual = 0.000113061, No Iterations 2
time step continuity errors : sum local = 0.0188107, global = -5.12476e-18, cumulative = 6.28387e-16
rho max/min : 1.21101 1.13359
DILUPBiCG:  Solving for omega, Initial residual = 0.000460285, Final residual = 1.74187e-05, No Iterations 1
DILUPBiCG:  Solving for k, Initial residual = 0.00835413, Final residual = 0.000268853, No Iterations 1
ExecutionTime = 12.39 s  ClockTime = 155 s

Time = 29

DILUPBiCG:  Solving for Ux, Initial residual = 0.0344739, Final residual = 0.000160099, No Iterations 1
DILUPBiCG:  Solving for Uy, Initial residual = 0.0129427, Final residual = 6.28853e-05, No Iterations 1
DILUPBiCG:  Solving for Uz, Initial residual = 0.0253355, Final residual = 0.000105139, No Iterations 1
DILUPBiCG:  Solving for h, Initial residual = 0.00560025, Final residual = 9.25604e-05, No Iterations 1
GAMG:  Solving for p_rgh, Initial residual = 0.0118763, Final residual = 8.14527e-05, No Iterations 3
time step continuity errors : sum local = 0.0134672, global = -5.82409e-18, cumulative = 6.22563e-16
rho max/min : 1.21105 1.13363
DILUPBiCG:  Solving for omega, Initial residual = 0.000474331, Final residual = 1.75109e-05, No Iterations 1
DILUPBiCG:  Solving for k, Initial residual = 0.00770659, Final residual = 0.000246042, No Iterations 1
ExecutionTime = 12.81 s  ClockTime = 156 s

Time = 30

DILUPBiCG:  Solving for Ux, Initial residual = 0.0483041, Final residual = 0.000178769, No Iterations 1
DILUPBiCG:  Solving for Uy, Initial residual = 0.0160588, Final residual = 6.9651e-05, No Iterations 1
DILUPBiCG:  Solving for Uz, Initial residual = 0.0228122, Final residual = 9.45544e-05, No Iterations 1
DILUPBiCG:  Solving for h, Initial residual = 0.00547852, Final residual = 3.07958e-05, No Iterations 1
GAMG:  Solving for p_rgh, Initial residual = 0.0121097, Final residual = 5.16881e-05, No Iterations 2
time step continuity errors : sum local = 0.00857395, global = -9.78226e-17, cumulative = 5.2474e-16
rho max/min : 1.21109 1.13367
DILUPBiCG:  Solving for omega, Initial residual = 0.000467128, Final residual = 1.69532e-05, No Iterations 1
DILUPBiCG:  Solving for k, Initial residual = 0.0071115, Final residual = 0.000226928, No Iterations 1
ExecutionTime = 13.19 s  ClockTime = 156 s

Time = 31

DILUPBiCG:  Solving for Ux, Initial residual = 0.0363535, Final residual = 0.000147784, No Iterations 1
DILUPBiCG:  Solving for Uy, Initial residual = 0.0165509, Final residual = 6.9367e-05, No Iterations 1
DILUPBiCG:  Solving for Uz, Initial residual = 0.0190377, Final residual = 8.51423e-05, No Iterations 1
DILUPBiCG:  Solving for h, Initial residual = 0.00531963, Final residual = 2.82326e-05, No Iterations 1
GAMG:  Solving for p_rgh, Initial residual = 0.0120924, Final residual = 9.63551e-05, No Iterations 1
time step continuity errors : sum local = 0.0160114, global = 2.63253e-16, cumulative = 7.87993e-16
rho max/min : 1.21113 1.1337
DILUPBiCG:  Solving for omega, Initial residual = 0.000476849, Final residual = 1.72303e-05, No Iterations 1
DILUPBiCG:  Solving for k, Initial residual = 0.00693317, Final residual = 0.000219347, No Iterations 1
ExecutionTime = 13.61 s  ClockTime = 156 s

Time = 32

DILUPBiCG:  Solving for Ux, Initial residual = 0.0459026, Final residual = 0.000148669, No Iterations 1
DILUPBiCG:  Solving for Uy, Initial residual = 0.0164738, Final residual = 6.77307e-05, No Iterations 1
DILUPBiCG:  Solving for Uz, Initial residual = 0.0183416, Final residual = 8.04522e-05, No Iterations 1
DILUPBiCG:  Solving for h, Initial residual = 0.00532287, Final residual = 2.54321e-05, No Iterations 1
GAMG:  Solving for p_rgh, Initial residual = 0.0126662, Final residual = 4.17485e-05, No Iterations 3
time step continuity errors : sum local = 0.00685479, global = -4.804e-18, cumulative = 7.83189e-16
rho max/min : 1.21117 1.13374
DILUPBiCG:  Solving for omega, Initial residual = 0.000450097, Final residual = 1.5711e-05, No Iterations 1
DILUPBiCG:  Solving for k, Initial residual = 0.00641882, Final residual = 0.000208758, No Iterations 1
ExecutionTime = 14.06 s  ClockTime = 157 s

Time = 33

DILUPBiCG:  Solving for Ux, Initial residual = 0.0348209, Final residual = 0.000137998, No Iterations 1
DILUPBiCG:  Solving for Uy, Initial residual = 0.011324, Final residual = 5.03657e-05, No Iterations 1
DILUPBiCG:  Solving for Uz, Initial residual = 0.0224745, Final residual = 9.80352e-05, No Iterations 1
DILUPBiCG:  Solving for h, Initial residual = 0.00508656, Final residual = 2.4925e-05, No Iterations 1
GAMG:  Solving for p_rgh, Initial residual = 0.0121814, Final residual = 0.000116648, No Iterations 1
time step continuity errors : sum local = 0.0191506, global = 7.51827e-17, cumulative = 8.58371e-16
rho max/min : 1.2112 1.13377
DILUPBiCG:  Solving for omega, Initial residual = 0.000450143, Final residual = 1.62819e-05, No Iterations 1
DILUPBiCG:  Solving for k, Initial residual = 0.00616785, Final residual = 0.000200625, No Iterations 1
ExecutionTime = 14.45 s  ClockTime = 157 s

Time = 34

DILUPBiCG:  Solving for Ux, Initial residual = 0.0344377, Final residual = 0.000125325, No Iterations 1
DILUPBiCG:  Solving for Uy, Initial residual = 0.0109533, Final residual = 4.79237e-05, No Iterations 1
DILUPBiCG:  Solving for Uz, Initial residual = 0.0227569, Final residual = 9.54965e-05, No Iterations 1
DILUPBiCG:  Solving for h, Initial residual = 0.00507446, Final residual = 2.29577e-05, No Iterations 1
GAMG:  Solving for p_rgh, Initial residual = 0.0122433, Final residual = 5.40759e-05, No Iterations 3
time step continuity errors : sum local = 0.00961587, global = -1.69537e-16, cumulative = 6.88834e-16
rho max/min : 1.21124 1.13381
DILUPBiCG:  Solving for omega, Initial residual = 0.000398025, Final residual = 1.3357e-05, No Iterations 1
DILUPBiCG:  Solving for k, Initial residual = 0.00532579, Final residual = 0.000175219, No Iterations 1
ExecutionTime = 14.92 s  ClockTime = 158 s

Time = 35

DILUPBiCG:  Solving for Ux, Initial residual = 0.0420629, Final residual = 0.000142493, No Iterations 1
DILUPBiCG:  Solving for Uy, Initial residual = 0.0100276, Final residual = 3.33519e-05, No Iterations 1
DILUPBiCG:  Solving for Uz, Initial residual = 0.0196393, Final residual = 7.23906e-05, No Iterations 1
DILUPBiCG:  Solving for h, Initial residual = 0.00486364, Final residual = 8.30048e-05, No Iterations 1
GAMG:  Solving for p_rgh, Initial residual = 0.0111718, Final residual = 9.57085e-05, No Iterations 1
time step continuity errors : sum local = 0.0160726, global = -2.07276e-17, cumulative = 6.68107e-16
rho max/min : 1.21127 1.13385
DILUPBiCG:  Solving for omega, Initial residual = 0.000386221, Final residual = 1.48785e-05, No Iterations 1
DILUPBiCG:  Solving for k, Initial residual = 0.0051004, Final residual = 0.00016245, No Iterations 1
ExecutionTime = 15.38 s  ClockTime = 158 s

Time = 36

DILUPBiCG:  Solving for Ux, Initial residual = 0.0278523, Final residual = 0.00010756, No Iterations 1
DILUPBiCG:  Solving for Uy, Initial residual = 0.0100403, Final residual = 3.16521e-05, No Iterations 1
DILUPBiCG:  Solving for Uz, Initial residual = 0.0171627, Final residual = 6.29626e-05, No Iterations 1
DILUPBiCG:  Solving for h, Initial residual = 0.00484178, Final residual = 2.29643e-05, No Iterations 1
GAMG:  Solving for p_rgh, Initial residual = 0.0109576, Final residual = 6.49372e-05, No Iterations 2
time step continuity errors : sum local = 0.0104296, global = 8.58267e-17, cumulative = 7.53933e-16
rho max/min : 1.21153 1.13388
DILUPBiCG:  Solving for omega, Initial residual = 0.000334599, Final residual = 1.18431e-05, No Iterations 1
DILUPBiCG:  Solving for k, Initial residual = 0.00526248, Final residual = 0.000161909, No Iterations 1
ExecutionTime = 15.82 s  ClockTime = 159 s

Time = 37

DILUPBiCG:  Solving for Ux, Initial residual = 0.0590524, Final residual = 0.000153932, No Iterations 1
DILUPBiCG:  Solving for Uy, Initial residual = 0.0109847, Final residual = 3.15559e-05, No Iterations 1
DILUPBiCG:  Solving for Uz, Initial residual = 0.0162349, Final residual = 7.79253e-05, No Iterations 1
DILUPBiCG:  Solving for h, Initial residual = 0.00460623, Final residual = 1.95442e-05, No Iterations 1
GAMG:  Solving for p_rgh, Initial residual = 0.0100279, Final residual = 6.95822e-05, No Iterations 1
time step continuity errors : sum local = 0.0113871, global = 3.75619e-17, cumulative = 7.91495e-16
rho max/min : 1.21134 1.13391
DILUPBiCG:  Solving for omega, Initial residual = 0.0003412, Final residual = 2.50692e-05, No Iterations 1
DILUPBiCG:  Solving for k, Initial residual = 0.00543253, Final residual = 0.000160012, No Iterations 1
ExecutionTime = 16.22 s  ClockTime = 159 s

Time = 38

DILUPBiCG:  Solving for Ux, Initial residual = 0.0340774, Final residual = 0.000120823, No Iterations 1
DILUPBiCG:  Solving for Uy, Initial residual = 0.0110754, Final residual = 3.03487e-05, No Iterations 1
DILUPBiCG:  Solving for Uz, Initial residual = 0.0154221, Final residual = 6.15375e-05, No Iterations 1
DILUPBiCG:  Solving for h, Initial residual = 0.00460533, Final residual = 2.05318e-05, No Iterations 1
GAMG:  Solving for p_rgh, Initial residual = 0.00983137, Final residual = 2.88988e-05, No Iterations 2
time step continuity errors : sum local = 0.00474751, global = -1.2249e-17, cumulative = 7.79246e-16
rho max/min : 1.21138 1.13395
DILUPBiCG:  Solving for omega, Initial residual = 0.000290301, Final residual = 1.13461e-05, No Iterations 1
DILUPBiCG:  Solving for k, Initial residual = 0.00561301, Final residual = 0.000160874, No Iterations 1
ExecutionTime = 16.61 s  ClockTime = 159 s

Time = 39

DILUPBiCG:  Solving for Ux, Initial residual = 0.0239528, Final residual = 9.20511e-05, No Iterations 1
DILUPBiCG:  Solving for Uy, Initial residual = 0.011408, Final residual = 2.98292e-05, No Iterations 1
DILUPBiCG:  Solving for Uz, Initial residual = 0.0157466, Final residual = 5.88222e-05, No Iterations 1
DILUPBiCG:  Solving for h, Initial residual = 0.0044543, Final residual = 0.000317527, No Iterations 1
GAMG:  Solving for p_rgh, Initial residual = 0.00979391, Final residual = 8.67173e-05, No Iterations 1
time step continuity errors : sum local = 0.014001, global = 8.38124e-17, cumulative = 8.63059e-16
rho max/min : 1.21142 1.13398
DILUPBiCG:  Solving for omega, Initial residual = 0.000299525, Final residual = 3.90939e-07, No Iterations 2
DILUPBiCG:  Solving for k, Initial residual = 0.00575122, Final residual = 0.000159725, No Iterations 1
ExecutionTime = 17.06 s  ClockTime = 160 s

Time = 40

DILUPBiCG:  Solving for Ux, Initial residual = 0.0502565, Final residual = 0.000128259, No Iterations 1
DILUPBiCG:  Solving for Uy, Initial residual = 0.0114404, Final residual = 2.91606e-05, No Iterations 1
DILUPBiCG:  Solving for Uz, Initial residual = 0.0160106, Final residual = 5.94994e-05, No Iterations 1
DILUPBiCG:  Solving for h, Initial residual = 0.00445914, Final residual = 1.9378e-05, No Iterations 1
GAMG:  Solving for p_rgh, Initial residual = 0.00966932, Final residual = 4.054e-05, No Iterations 2
time step continuity errors : sum local = 0.00655161, global = 6.63785e-17, cumulative = 9.29437e-16
rho max/min : 1.21145 1.13401
DILUPBiCG:  Solving for omega, Initial residual = 0.000261365, Final residual = 9.97388e-06, No Iterations 1
DILUPBiCG:  Solving for k, Initial residual = 0.00581818, Final residual = 0.000158237, No Iterations 1
ExecutionTime = 17.52 s  ClockTime = 160 s

Time = 41

DILUPBiCG:  Solving for Ux, Initial residual = 0.0230611, Final residual = 9.21365e-05, No Iterations 1
DILUPBiCG:  Solving for Uy, Initial residual = 0.011372, Final residual = 2.83028e-05, No Iterations 1
DILUPBiCG:  Solving for Uz, Initial residual = 0.0145593, Final residual = 5.61255e-05, No Iterations 1
DILUPBiCG:  Solving for h, Initial residual = 0.00431416, Final residual = 1.91846e-05, No Iterations 1
GAMG:  Solving for p_rgh, Initial residual = 0.00910192, Final residual = 3.16239e-05, No Iterations 2
time step continuity errors : sum local = 0.00502596, global = -1.35982e-16, cumulative = 7.93455e-16
rho max/min : 1.21149 1.13405
DILUPBiCG:  Solving for omega, Initial residual = 0.000249599, Final residual = 4.04971e-07, No Iterations 2
DILUPBiCG:  Solving for k, Initial residual = 0.00586014, Final residual = 0.000155993, No Iterations 1
ExecutionTime = 17.92 s  ClockTime = 161 s

Time = 42

DILUPBiCG:  Solving for Ux, Initial residual = 0.0412951, Final residual = 0.000117268, No Iterations 1
DILUPBiCG:  Solving for Uy, Initial residual = 0.0111326, Final residual = 2.72597e-05, No Iterations 1
DILUPBiCG:  Solving for Uz, Initial residual = 0.0158456, Final residual = 5.71472e-05, No Iterations 1
DILUPBiCG:  Solving for h, Initial residual = 0.00421963, Final residual = 1.98215e-05, No Iterations 1
GAMG:  Solving for p_rgh, Initial residual = 0.0086032, Final residual = 6.89552e-05, No Iterations 1
time step continuity errors : sum local = 0.0106793, global = 4.06539e-17, cumulative = 8.34109e-16
rho max/min : 1.21152 1.13408
DILUPBiCG:  Solving for omega, Initial residual = 0.000246546, Final residual = 9.07831e-06, No Iterations 1
DILUPBiCG:  Solving for k, Initial residual = 0.0059225, Final residual = 0.000153747, No Iterations 1
ExecutionTime = 18.3 s  ClockTime = 161 s

Time = 43

DILUPBiCG:  Solving for Ux, Initial residual = 0.024995, Final residual = 9.55971e-05, No Iterations 1
DILUPBiCG:  Solving for Uy, Initial residual = 0.0110826, Final residual = 2.69147e-05, No Iterations 1
DILUPBiCG:  Solving for Uz, Initial residual = 0.0150224, Final residual = 5.55367e-05, No Iterations 1
DILUPBiCG:  Solving for h, Initial residual = 0.00421346, Final residual = 1.75003e-05, No Iterations 1
GAMG:  Solving for p_rgh, Initial residual = 0.00862192, Final residual = 7.77583e-05, No Iterations 2
time step continuity errors : sum local = 0.0123329, global = 1.17164e-16, cumulative = 9.51273e-16
rho max/min : 1.21155 1.13411
DILUPBiCG:  Solving for omega, Initial residual = 0.000273067, Final residual = 2.04373e-05, No Iterations 1
DILUPBiCG:  Solving for k, Initial residual = 0.00590833, Final residual = 0.000152243, No Iterations 1
ExecutionTime = 18.7 s  ClockTime = 161 s

Time = 44

DILUPBiCG:  Solving for Ux, Initial residual = 0.0551892, Final residual = 0.000134264, No Iterations 1
DILUPBiCG:  Solving for Uy, Initial residual = 0.00953604, Final residual = 2.47596e-05, No Iterations 1
DILUPBiCG:  Solving for Uz, Initial residual = 0.0223622, Final residual = 6.90526e-05, No Iterations 1
DILUPBiCG:  Solving for h, Initial residual = 0.00402589, Final residual = 1.5418e-05, No Iterations 1
GAMG:  Solving for p_rgh, Initial residual = 0.00799634, Final residual = 5.6132e-05, No Iterations 1
time step continuity errors : sum local = 0.00897421, global = 1.7128e-16, cumulative = 1.12255e-15
rho max/min : 1.21158 1.13414
DILUPBiCG:  Solving for omega, Initial residual = 0.000261052, Final residual = 8.07649e-06, No Iterations 1
DILUPBiCG:  Solving for k, Initial residual = 0.00601762, Final residual = 0.000151112, No Iterations 1
ExecutionTime = 19.05 s  ClockTime = 162 s

Time = 45

DILUPBiCG:  Solving for Ux, Initial residual = 0.0301789, Final residual = 0.000100656, No Iterations 1
DILUPBiCG:  Solving for Uy, Initial residual = 0.0094273, Final residual = 2.43452e-05, No Iterations 1
DILUPBiCG:  Solving for Uz, Initial residual = 0.0191321, Final residual = 6.24093e-05, No Iterations 1
DILUPBiCG:  Solving for h, Initial residual = 0.0040555, Final residual = 2.03223e-05, No Iterations 1
GAMG:  Solving for p_rgh, Initial residual = 0.0080581, Final residual = 7.67058e-05, No Iterations 1
time step continuity errors : sum local = 0.0121502, global = 7.74145e-17, cumulative = 1.19997e-15
rho max/min : 1.21162 1.13417
DILUPBiCG:  Solving for omega, Initial residual = 0.000230467, Final residual = 3.45876e-07, No Iterations 2
DILUPBiCG:  Solving for k, Initial residual = 0.00613236, Final residual = 0.000150942, No Iterations 1
ExecutionTime = 19.41 s  ClockTime = 162 s

Time = 46

DILUPBiCG:  Solving for Ux, Initial residual = 0.0604237, Final residual = 0.000140719, No Iterations 1
DILUPBiCG:  Solving for Uy, Initial residual = 0.00934819, Final residual = 2.38611e-05, No Iterations 1
DILUPBiCG:  Solving for Uz, Initial residual = 0.016951, Final residual = 5.7739e-05, No Iterations 1
DILUPBiCG:  Solving for h, Initial residual = 0.00403367, Final residual = 1.81076e-05, No Iterations 1
GAMG:  Solving for p_rgh, Initial residual = 0.0083655, Final residual = 3.81536e-05, No Iterations 2
time step continuity errors : sum local = 0.00579419, global = -1.03176e-16, cumulative = 1.09679e-15
rho max/min : 1.21165 1.1342
DILUPBiCG:  Solving for omega, Initial residual = 0.000232647, Final residual = 9.12888e-06, No Iterations 1
DILUPBiCG:  Solving for k, Initial residual = 0.00628612, Final residual = 0.000153623, No Iterations 1
ExecutionTime = 19.78 s  ClockTime = 163 s

Time = 47

DILUPBiCG:  Solving for Ux, Initial residual = 0.0329956, Final residual = 0.000103274, No Iterations 1
DILUPBiCG:  Solving for Uy, Initial residual = 0.00884748, Final residual = 2.32213e-05, No Iterations 1
DILUPBiCG:  Solving for Uz, Initial residual = 0.0135661, Final residual = 5.38884e-05, No Iterations 1
DILUPBiCG:  Solving for h, Initial residual = 0.00389872, Final residual = 5.03007e-05, No Iterations 1
GAMG:  Solving for p_rgh, Initial residual = 0.00798743, Final residual = 6.98893e-05, No Iterations 1
time step continuity errors : sum local = 0.010658, global = -4.73198e-17, cumulative = 1.04947e-15
rho max/min : 1.21168 1.13423
DILUPBiCG:  Solving for omega, Initial residual = 0.000235449, Final residual = 3.12293e-07, No Iterations 2
DILUPBiCG:  Solving for k, Initial residual = 0.00640904, Final residual = 0.000153668, No Iterations 1
ExecutionTime = 20.14 s  ClockTime = 163 s

Time = 48

DILUPBiCG:  Solving for Ux, Initial residual = 0.021696, Final residual = 8.22843e-05, No Iterations 1
DILUPBiCG:  Solving for Uy, Initial residual = 0.00878511, Final residual = 2.29811e-05, No Iterations 1
DILUPBiCG:  Solving for Uz, Initial residual = 0.0135873, Final residual = 5.4095e-05, No Iterations 1
DILUPBiCG:  Solving for h, Initial residual = 0.00391809, Final residual = 1.8274e-05, No Iterations 1
GAMG:  Solving for p_rgh, Initial residual = 0.00817778, Final residual = 4.83263e-05, No Iterations 2
time step continuity errors : sum local = 0.00748899, global = 2.62087e-17, cumulative = 1.07568e-15
rho max/min : 1.21171 1.13426
DILUPBiCG:  Solving for omega, Initial residual = 0.000236401, Final residual = 1.12609e-05, No Iterations 1
DILUPBiCG:  Solving for k, Initial residual = 0.00662713, Final residual = 0.00015876, No Iterations 1
ExecutionTime = 20.51 s  ClockTime = 163 s

Time = 49

DILUPBiCG:  Solving for Ux, Initial residual = 0.0352015, Final residual = 9.62957e-05, No Iterations 1
DILUPBiCG:  Solving for Uy, Initial residual = 0.0081743, Final residual = 2.28115e-05, No Iterations 1
DILUPBiCG:  Solving for Uz, Initial residual = 0.0133489, Final residual = 5.82497e-05, No Iterations 1
DILUPBiCG:  Solving for h, Initial residual = 0.00378182, Final residual = 1.58059e-05, No Iterations 1
GAMG:  Solving for p_rgh, Initial residual = 0.00786264, Final residual = 6.45497e-05, No Iterations 1
time step continuity errors : sum local = 0.0099247, global = -2.39942e-17, cumulative = 1.05169e-15
rho max/min : 1.21174 1.13429
DILUPBiCG:  Solving for omega, Initial residual = 0.000233999, Final residual = 2.25413e-05, No Iterations 1
DILUPBiCG:  Solving for k, Initial residual = 0.00682068, Final residual = 0.000160642, No Iterations 1
ExecutionTime = 20.88 s  ClockTime = 164 s

Time = 50

DILUPBiCG:  Solving for Ux, Initial residual = 0.0274754, Final residual = 9.44858e-05, No Iterations 1
DILUPBiCG:  Solving for Uy, Initial residual = 0.00809896, Final residual = 2.24995e-05, No Iterations 1
DILUPBiCG:  Solving for Uz, Initial residual = 0.0137402, Final residual = 5.54503e-05, No Iterations 1
DILUPBiCG:  Solving for h, Initial residual = 0.00380041, Final residual = 1.91585e-05, No Iterations 1
GAMG:  Solving for p_rgh, Initial residual = 0.00809604, Final residual = 4.23572e-05, No Iterations 2
time step continuity errors : sum local = 0.00627945, global = 1.18046e-16, cumulative = 1.16973e-15
rho max/min : 1.21178 1.13432
DILUPBiCG:  Solving for omega, Initial residual = 0.000230172, Final residual = 1.21835e-05, No Iterations 1
DILUPBiCG:  Solving for k, Initial residual = 0.00699776, Final residual = 0.000164176, No Iterations 1
ExecutionTime = 21.92 s  ClockTime = 165 s

Time = 51

DILUPBiCG:  Solving for Ux, Initial residual = 0.0193395, Final residual = 7.32926e-05, No Iterations 1
DILUPBiCG:  Solving for Uy, Initial residual = 0.00773874, Final residual = 2.249e-05, No Iterations 1
DILUPBiCG:  Solving for Uz, Initial residual = 0.0138642, Final residual = 5.42125e-05, No Iterations 1
DILUPBiCG:  Solving for h, Initial residual = 0.00370631, Final residual = 4.54927e-05, No Iterations 1
GAMG:  Solving for p_rgh, Initial residual = 0.00790585, Final residual = 7.12186e-05, No Iterations 1
time step continuity errors : sum local = 0.0104351, global = 9.71245e-17, cumulative = 1.26686e-15
rho max/min : 1.21181 1.13434
DILUPBiCG:  Solving for omega, Initial residual = 0.000234613, Final residual = 2.03592e-05, No Iterations 1
DILUPBiCG:  Solving for k, Initial residual = 0.00712489, Final residual = 0.000164374, No Iterations 1
ExecutionTime = 22.27 s  ClockTime = 165 s

Time = 52

DILUPBiCG:  Solving for Ux, Initial residual = 0.0339885, Final residual = 9.1562e-05, No Iterations 1
DILUPBiCG:  Solving for Uy, Initial residual = 0.00768762, Final residual = 2.22504e-05, No Iterations 1
DILUPBiCG:  Solving for Uz, Initial residual = 0.0140026, Final residual = 5.58381e-05, No Iterations 1
DILUPBiCG:  Solving for h, Initial residual = 0.00373033, Final residual = 1.53619e-05, No Iterations 1
GAMG:  Solving for p_rgh, Initial residual = 0.0082732, Final residual = 4.32399e-05, No Iterations 2
time step continuity errors : sum local = 0.00641777, global = -1.28812e-16, cumulative = 1.13805e-15
rho max/min : 1.21184 1.13437
DILUPBiCG:  Solving for omega, Initial residual = 0.000234541, Final residual = 1.08413e-05, No Iterations 1
DILUPBiCG:  Solving for k, Initial residual = 0.00729365, Final residual = 0.000168768, No Iterations 1
ExecutionTime = 22.65 s  ClockTime = 165 s

Time = 53

DILUPBiCG:  Solving for Ux, Initial residual = 0.0367059, Final residual = 9.31991e-05, No Iterations 1
DILUPBiCG:  Solving for Uy, Initial residual = 0.00738284, Final residual = 2.27751e-05, No Iterations 1
DILUPBiCG:  Solving for Uz, Initial residual = 0.0122527, Final residual = 5.8768e-05, No Iterations 1
DILUPBiCG:  Solving for h, Initial residual = 0.00360924, Final residual = 1.5481e-05, No Iterations 1
GAMG:  Solving for p_rgh, Initial residual = 0.00805203, Final residual = 6.22874e-05, No Iterations 1
time step continuity errors : sum local = 0.00904481, global = -3.42658e-17, cumulative = 1.10378e-15
rho max/min : 1.21187 1.1344
DILUPBiCG:  Solving for omega, Initial residual = 0.000233736, Final residual = 3.28515e-07, No Iterations 2
DILUPBiCG:  Solving for k, Initial residual = 0.00734234, Final residual = 0.000167998, No Iterations 1
ExecutionTime = 23.02 s  ClockTime = 166 s

Time = 54

DILUPBiCG:  Solving for Ux, Initial residual = 0.0228152, Final residual = 8.00414e-05, No Iterations 1
DILUPBiCG:  Solving for Uy, Initial residual = 0.00734768, Final residual = 2.26497e-05, No Iterations 1
DILUPBiCG:  Solving for Uz, Initial residual = 0.0117912, Final residual = 5.58526e-05, No Iterations 1
DILUPBiCG:  Solving for h, Initial residual = 0.00362883, Final residual = 1.53376e-05, No Iterations 1
GAMG:  Solving for p_rgh, Initial residual = 0.00826342, Final residual = 3.45716e-05, No Iterations 2
time step continuity errors : sum local = 0.00488822, global = 2.39966e-17, cumulative = 1.12778e-15
rho max/min : 1.2119 1.13443
DILUPBiCG:  Solving for omega, Initial residual = 0.000226575, Final residual = 1.13732e-05, No Iterations 1
DILUPBiCG:  Solving for k, Initial residual = 0.00747709, Final residual = 0.00017059, No Iterations 1
ExecutionTime = 23.41 s  ClockTime = 166 s

Time = 55

DILUPBiCG:  Solving for Ux, Initial residual = 0.0221801, Final residual = 7.65471e-05, No Iterations 1
DILUPBiCG:  Solving for Uy, Initial residual = 0.00715512, Final residual = 2.30026e-05, No Iterations 1
DILUPBiCG:  Solving for Uz, Initial residual = 0.0116908, Final residual = 5.01858e-05, No Iterations 1
DILUPBiCG:  Solving for h, Initial residual = 0.00353499, Final residual = 1.63706e-05, No Iterations 1
GAMG:  Solving for p_rgh, Initial residual = 0.00807727, Final residual = 6.17925e-05, No Iterations 1
time step continuity errors : sum local = 0.00853085, global = -4.96489e-19, cumulative = 1.12728e-15
rho max/min : 1.21193 1.13446
DILUPBiCG:  Solving for omega, Initial residual = 0.000227705, Final residual = 3.17421e-07, No Iterations 2
DILUPBiCG:  Solving for k, Initial residual = 0.00750215, Final residual = 0.000168923, No Iterations 1
ExecutionTime = 23.78 s  ClockTime = 167 s

Time = 56

DILUPBiCG:  Solving for Ux, Initial residual = 0.0320969, Final residual = 8.75765e-05, No Iterations 1
DILUPBiCG:  Solving for Uy, Initial residual = 0.00714444, Final residual = 2.26794e-05, No Iterations 1
DILUPBiCG:  Solving for Uz, Initial residual = 0.0116298, Final residual = 5.21742e-05, No Iterations 1
DILUPBiCG:  Solving for h, Initial residual = 0.00355181, Final residual = 1.34571e-05, No Iterations 1
GAMG:  Solving for p_rgh, Initial residual = 0.00831459, Final residual = 2.32564e-05, No Iterations 2
time step continuity errors : sum local = 0.0032139, global = 7.79982e-17, cumulative = 1.20528e-15
rho max/min : 1.21196 1.13449
DILUPBiCG:  Solving for omega, Initial residual = 0.000213379, Final residual = 1.02273e-05, No Iterations 1
DILUPBiCG:  Solving for k, Initial residual = 0.00756642, Final residual = 0.000169339, No Iterations 1
ExecutionTime = 24.17 s  ClockTime = 167 s

Time = 57

DILUPBiCG:  Solving for Ux, Initial residual = 0.0170097, Final residual = 7.02896e-05, No Iterations 1
DILUPBiCG:  Solving for Uy, Initial residual = 0.0070728, Final residual = 2.24667e-05, No Iterations 1
DILUPBiCG:  Solving for Uz, Initial residual = 0.0115305, Final residual = 5.83767e-05, No Iterations 1
DILUPBiCG:  Solving for h, Initial residual = 0.00347313, Final residual = 1.96226e-05, No Iterations 1
GAMG:  Solving for p_rgh, Initial residual = 0.00824745, Final residual = 7.87671e-05, No Iterations 1
time step continuity errors : sum local = 0.0106317, global = 2.75188e-17, cumulative = 1.2328e-15
rho max/min : 1.21199 1.13451
DILUPBiCG:  Solving for omega, Initial residual = 0.000216082, Final residual = 1.81285e-05, No Iterations 1
DILUPBiCG:  Solving for k, Initial residual = 0.00759422, Final residual = 0.000167784, No Iterations 1
ExecutionTime = 24.53 s  ClockTime = 167 s

Time = 58

DILUPBiCG:  Solving for Ux, Initial residual = 0.0275496, Final residual = 7.85932e-05, No Iterations 1
DILUPBiCG:  Solving for Uy, Initial residual = 0.0070564, Final residual = 2.20523e-05, No Iterations 1
DILUPBiCG:  Solving for Uz, Initial residual = 0.0116097, Final residual = 5.59193e-05, No Iterations 1
DILUPBiCG:  Solving for h, Initial residual = 0.00348276, Final residual = 1.28192e-05, No Iterations 1
GAMG:  Solving for p_rgh, Initial residual = 0.00845137, Final residual = 3.53565e-05, No Iterations 2
time step continuity errors : sum local = 0.00475059, global = -8.46162e-17, cumulative = 1.14818e-15
rho max/min : 1.21202 1.13454
DILUPBiCG:  Solving for omega, Initial residual = 0.000208015, Final residual = 9.9993e-06, No Iterations 1
DILUPBiCG:  Solving for k, Initial residual = 0.00761312, Final residual = 0.000167033, No Iterations 1
ExecutionTime = 24.93 s  ClockTime = 168 s

Time = 59

DILUPBiCG:  Solving for Ux, Initial residual = 0.0199878, Final residual = 7.76132e-05, No Iterations 1
DILUPBiCG:  Solving for Uy, Initial residual = 0.0069706, Final residual = 2.14855e-05, No Iterations 1
DILUPBiCG:  Solving for Uz, Initial residual = 0.0109871, Final residual = 0.000125203, No Iterations 1
DILUPBiCG:  Solving for h, Initial residual = 0.00340394, Final residual = 1.48777e-05, No Iterations 1
GAMG:  Solving for p_rgh, Initial residual = 0.00829827, Final residual = 8.25438e-05, No Iterations 1
time step continuity errors : sum local = 0.0107929, global = -1.64675e-16, cumulative = 9.83505e-16
rho max/min : 1.21205 1.13457
DILUPBiCG:  Solving for omega, Initial residual = 0.000206737, Final residual = 1.73477e-05, No Iterations 1
DILUPBiCG:  Solving for k, Initial residual = 0.00760285, Final residual = 0.000164884, No Iterations 1
ExecutionTime = 25.3 s  ClockTime = 168 s

Time = 60

DILUPBiCG:  Solving for Ux, Initial residual = 0.0201448, Final residual = 7.59076e-05, No Iterations 1
DILUPBiCG:  Solving for Uy, Initial residual = 0.00694807, Final residual = 2.10285e-05, No Iterations 1
DILUPBiCG:  Solving for Uz, Initial residual = 0.0109172, Final residual = 0.000131476, No Iterations 1
DILUPBiCG:  Solving for h, Initial residual = 0.00340734, Final residual = 1.22819e-05, No Iterations 1
GAMG:  Solving for p_rgh, Initial residual = 0.00837896, Final residual = 3.20057e-05, No Iterations 2
time step continuity errors : sum local = 0.00414338, global = -3.1653e-17, cumulative = 9.51852e-16
rho max/min : 1.21208 1.1346
DILUPBiCG:  Solving for omega, Initial residual = 0.000202961, Final residual = 9.90607e-06, No Iterations 1
DILUPBiCG:  Solving for k, Initial residual = 0.00759177, Final residual = 0.000163983, No Iterations 1
ExecutionTime = 25.7 s  ClockTime = 168 s

Time = 61

DILUPBiCG:  Solving for Ux, Initial residual = 0.0295508, Final residual = 8.67439e-05, No Iterations 1
DILUPBiCG:  Solving for Uy, Initial residual = 0.00687755, Final residual = 2.02222e-05, No Iterations 1
DILUPBiCG:  Solving for Uz, Initial residual = 0.010684, Final residual = 0.00017893, No Iterations 1
DILUPBiCG:  Solving for h, Initial residual = 0.00331915, Final residual = 2.22229e-05, No Iterations 1
GAMG:  Solving for p_rgh, Initial residual = 0.00815469, Final residual = 7.16126e-05, No Iterations 1
time step continuity errors : sum local = 0.00908202, global = -1.03867e-16, cumulative = 8.47985e-16
rho max/min : 1.21211 1.13463
DILUPBiCG:  Solving for omega, Initial residual = 0.00019965, Final residual = 1.46532e-05, No Iterations 1
DILUPBiCG:  Solving for k, Initial residual = 0.00753558, Final residual = 0.000160794, No Iterations 1
ExecutionTime = 26.09 s  ClockTime = 169 s

Time = 62

DILUPBiCG:  Solving for Ux, Initial residual = 0.0196401, Final residual = 8.10596e-05, No Iterations 1
DILUPBiCG:  Solving for Uy, Initial residual = 0.00686872, Final residual = 1.9726e-05, No Iterations 1
DILUPBiCG:  Solving for Uz, Initial residual = 0.0106919, Final residual = 0.000127097, No Iterations 1
DILUPBiCG:  Solving for h, Initial residual = 0.00332599, Final residual = 1.20065e-05, No Iterations 1
GAMG:  Solving for p_rgh, Initial residual = 0.00820396, Final residual = 6.93692e-05, No Iterations 2
time step continuity errors : sum local = 0.00879757, global = -4.55089e-17, cumulative = 8.02476e-16
rho max/min : 1.21214 1.13465
DILUPBiCG:  Solving for omega, Initial residual = 0.00020902, Final residual = 1.02758e-05, No Iterations 1
DILUPBiCG:  Solving for k, Initial residual = 0.00741781, Final residual = 0.000157741, No Iterations 1
ExecutionTime = 26.47 s  ClockTime = 169 s

Time = 63

DILUPBiCG:  Solving for Ux, Initial residual = 0.0500118, Final residual = 0.000112149, No Iterations 1
DILUPBiCG:  Solving for Uy, Initial residual = 0.00728168, Final residual = 1.81148e-05, No Iterations 1
DILUPBiCG:  Solving for Uz, Initial residual = 0.0109792, Final residual = 6.99768e-05, No Iterations 1
DILUPBiCG:  Solving for h, Initial residual = 0.00321695, Final residual = 1.10104e-05, No Iterations 1
GAMG:  Solving for p_rgh, Initial residual = 0.0078764, Final residual = 5.5575e-05, No Iterations 1
time step continuity errors : sum local = 0.00700076, global = -8.93821e-17, cumulative = 7.13094e-16
rho max/min : 1.21217 1.13468
DILUPBiCG:  Solving for omega, Initial residual = 0.000195561, Final residual = 1.33456e-05, No Iterations 1
DILUPBiCG:  Solving for k, Initial residual = 0.0072436, Final residual = 0.000150246, No Iterations 1
ExecutionTime = 26.84 s  ClockTime = 170 s

Time = 64

DILUPBiCG:  Solving for Ux, Initial residual = 0.0225879, Final residual = 8.71747e-05, No Iterations 1
DILUPBiCG:  Solving for Uy, Initial residual = 0.00723588, Final residual = 1.76897e-05, No Iterations 1
DILUPBiCG:  Solving for Uz, Initial residual = 0.010393, Final residual = 0.000866584, No Iterations 1
DILUPBiCG:  Solving for h, Initial residual = 0.00324246, Final residual = 1.38989e-05, No Iterations 1
GAMG:  Solving for p_rgh, Initial residual = 0.00793808, Final residual = 7.10096e-05, No Iterations 1
time step continuity errors : sum local = 0.00886282, global = -1.11048e-17, cumulative = 7.01989e-16
rho max/min : 1.21219 1.13471
DILUPBiCG:  Solving for omega, Initial residual = 0.000181267, Final residual = 9.60536e-06, No Iterations 1
DILUPBiCG:  Solving for k, Initial residual = 0.00710264, Final residual = 0.000144431, No Iterations 1
ExecutionTime = 27.21 s  ClockTime = 170 s

Time = 65

DILUPBiCG:  Solving for Ux, Initial residual = 0.0483301, Final residual = 0.000112611, No Iterations 1
DILUPBiCG:  Solving for Uy, Initial residual = 0.00723518, Final residual = 1.73237e-05, No Iterations 1
DILUPBiCG:  Solving for Uz, Initial residual = 0.0104375, Final residual = 2.9187e-05, No Iterations 2
DILUPBiCG:  Solving for h, Initial residual = 0.00323716, Final residual = 1.19659e-05, No Iterations 1
GAMG:  Solving for p_rgh, Initial residual = 0.00807917, Final residual = 3.31494e-05, No Iterations 2
time step continuity errors : sum local = 0.00403648, global = -1.31781e-17, cumulative = 6.88811e-16
rho max/min : 1.21222 1.13473
DILUPBiCG:  Solving for omega, Initial residual = 0.000177555, Final residual = 1.228e-05, No Iterations 1
DILUPBiCG:  Solving for k, Initial residual = 0.00700207, Final residual = 0.000142017, No Iterations 1
ExecutionTime = 27.58 s  ClockTime = 170 s

Time = 66

DILUPBiCG:  Solving for Ux, Initial residual = 0.0231024, Final residual = 8.30332e-05, No Iterations 1
DILUPBiCG:  Solving for Uy, Initial residual = 0.00742267, Final residual = 1.70386e-05, No Iterations 1
DILUPBiCG:  Solving for Uz, Initial residual = 0.0102235, Final residual = 0.000142585, No Iterations 1
DILUPBiCG:  Solving for h, Initial residual = 0.00315936, Final residual = 1.47875e-05, No Iterations 1
GAMG:  Solving for p_rgh, Initial residual = 0.0078803, Final residual = 7.08573e-05, No Iterations 1
time step continuity errors : sum local = 0.00858229, global = 4.02729e-17, cumulative = 7.29084e-16
rho max/min : 1.21225 1.13476
DILUPBiCG:  Solving for omega, Initial residual = 0.00017539, Final residual = 9.43052e-06, No Iterations 1
DILUPBiCG:  Solving for k, Initial residual = 0.00686338, Final residual = 0.000136434, No Iterations 1
ExecutionTime = 27.95 s  ClockTime = 171 s

Time = 67

DILUPBiCG:  Solving for Ux, Initial residual = 0.0221585, Final residual = 9.69197e-05, No Iterations 1
DILUPBiCG:  Solving for Uy, Initial residual = 0.00744166, Final residual = 1.68893e-05, No Iterations 1
DILUPBiCG:  Solving for Uz, Initial residual = 0.0104834, Final residual = 0.000104816, No Iterations 1
DILUPBiCG:  Solving for h, Initial residual = 0.00318025, Final residual = 1.16811e-05, No Iterations 1
GAMG:  Solving for p_rgh, Initial residual = 0.00795619, Final residual = 3.64052e-05, No Iterations 2
time step continuity errors : sum local = 0.00439641, global = -8.05828e-17, cumulative = 6.48502e-16
rho max/min : 1.21228 1.13478
DILUPBiCG:  Solving for omega, Initial residual = 0.000171203, Final residual = 9.77051e-06, No Iterations 1
DILUPBiCG:  Solving for k, Initial residual = 0.00677256, Final residual = 0.000134623, No Iterations 1
ExecutionTime = 28.31 s  ClockTime = 171 s

Time = 68

DILUPBiCG:  Solving for Ux, Initial residual = 0.0280284, Final residual = 0.000104679, No Iterations 1
DILUPBiCG:  Solving for Uy, Initial residual = 0.0076354, Final residual = 1.6842e-05, No Iterations 1
DILUPBiCG:  Solving for Uz, Initial residual = 0.0106514, Final residual = 6.02626e-05, No Iterations 1
DILUPBiCG:  Solving for h, Initial residual = 0.00310568, Final residual = 1.33661e-05, No Iterations 1
GAMG:  Solving for p_rgh, Initial residual = 0.00771966, Final residual = 6.24374e-05, No Iterations 1
time step continuity errors : sum local = 0.00742673, global = -5.70729e-18, cumulative = 6.42794e-16
rho max/min : 1.2123 1.13481
DILUPBiCG:  Solving for omega, Initial residual = 0.000161981, Final residual = 9.81863e-06, No Iterations 1
DILUPBiCG:  Solving for k, Initial residual = 0.00663486, Final residual = 0.000130218, No Iterations 1
ExecutionTime = 28.66 s  ClockTime = 171 s

Time = 69

DILUPBiCG:  Solving for Ux, Initial residual = 0.021815, Final residual = 0.000113456, No Iterations 1
DILUPBiCG:  Solving for Uy, Initial residual = 0.00765818, Final residual = 1.66935e-05, No Iterations 1
DILUPBiCG:  Solving for Uz, Initial residual = 0.0108304, Final residual = 5.56726e-05, No Iterations 1
DILUPBiCG:  Solving for h, Initial residual = 0.00312137, Final residual = 1.14954e-05, No Iterations 1
GAMG:  Solving for p_rgh, Initial residual = 0.00780292, Final residual = 3.21994e-05, No Iterations 2
time step continuity errors : sum local = 0.00380039, global = -7.28145e-17, cumulative = 5.6998e-16
rho max/min : 1.21233 1.13483
DILUPBiCG:  Solving for omega, Initial residual = 0.000158089, Final residual = 8.95856e-06, No Iterations 1
DILUPBiCG:  Solving for k, Initial residual = 0.00652969, Final residual = 0.000127979, No Iterations 1
ExecutionTime = 29.06 s  ClockTime = 172 s

Time = 70

DILUPBiCG:  Solving for Ux, Initial residual = 0.0189765, Final residual = 0.000105886, No Iterations 1
DILUPBiCG:  Solving for Uy, Initial residual = 0.00792308, Final residual = 1.70505e-05, No Iterations 1
DILUPBiCG:  Solving for Uz, Initial residual = 0.0105484, Final residual = 5.28311e-05, No Iterations 1
DILUPBiCG:  Solving for h, Initial residual = 0.00305518, Final residual = 1.44492e-05, No Iterations 1
GAMG:  Solving for p_rgh, Initial residual = 0.00765864, Final residual = 6.48908e-05, No Iterations 1
time step continuity errors : sum local = 0.00760212, global = -3.07878e-17, cumulative = 5.39192e-16
rho max/min : 1.21236 1.13486
DILUPBiCG:  Solving for omega, Initial residual = 0.000154589, Final residual = 1.01789e-05, No Iterations 1
DILUPBiCG:  Solving for k, Initial residual = 0.00638411, Final residual = 0.000123592, No Iterations 1
ExecutionTime = 29.42 s  ClockTime = 172 s

Time = 71

DILUPBiCG:  Solving for Ux, Initial residual = 0.0263784, Final residual = 0.000100345, No Iterations 1
DILUPBiCG:  Solving for Uy, Initial residual = 0.00794602, Final residual = 1.70246e-05, No Iterations 1
DILUPBiCG:  Solving for Uz, Initial residual = 0.0107338, Final residual = 4.96448e-05, No Iterations 1
DILUPBiCG:  Solving for h, Initial residual = 0.00307049, Final residual = 1.12388e-05, No Iterations 1
GAMG:  Solving for p_rgh, Initial residual = 0.0077369, Final residual = 2.76252e-05, No Iterations 2
time step continuity errors : sum local = 0.00322462, global = 1.10999e-16, cumulative = 6.50191e-16
rho max/min : 1.21238 1.13488
DILUPBiCG:  Solving for omega, Initial residual = 0.000149149, Final residual = 7.91454e-06, No Iterations 1
DILUPBiCG:  Solving for k, Initial residual = 0.00626974, Final residual = 0.000121032, No Iterations 1
ExecutionTime = 29.8 s  ClockTime = 173 s

Time = 72

DILUPBiCG:  Solving for Ux, Initial residual = 0.0159682, Final residual = 0.000134785, No Iterations 1
DILUPBiCG:  Solving for Uy, Initial residual = 0.00795746, Final residual = 1.70718e-05, No Iterations 1
DILUPBiCG:  Solving for Uz, Initial residual = 0.0104432, Final residual = 4.97772e-05, No Iterations 1
DILUPBiCG:  Solving for h, Initial residual = 0.0030214, Final residual = 2.58194e-05, No Iterations 1
GAMG:  Solving for p_rgh, Initial residual = 0.00770543, Final residual = 2.54617e-05, No Iterations 2
time step continuity errors : sum local = 0.00294965, global = 8.38149e-17, cumulative = 7.34006e-16
rho max/min : 1.21241 1.13491
DILUPBiCG:  Solving for omega, Initial residual = 0.000138343, Final residual = 9.64671e-06, No Iterations 1
DILUPBiCG:  Solving for k, Initial residual = 0.0061609, Final residual = 0.000118617, No Iterations 1
ExecutionTime = 30.2 s  ClockTime = 173 s

Time = 73

DILUPBiCG:  Solving for Ux, Initial residual = 0.0161244, Final residual = 0.000132057, No Iterations 1
DILUPBiCG:  Solving for Uy, Initial residual = 0.00796162, Final residual = 1.70332e-05, No Iterations 1
DILUPBiCG:  Solving for Uz, Initial residual = 0.0102824, Final residual = 4.77905e-05, No Iterations 1
DILUPBiCG:  Solving for h, Initial residual = 0.00299667, Final residual = 2.88667e-05, No Iterations 1
GAMG:  Solving for p_rgh, Initial residual = 0.00765041, Final residual = 2.26861e-05, No Iterations 2
time step continuity errors : sum local = 0.00260641, global = 3.48631e-17, cumulative = 7.68869e-16
rho max/min : 1.21244 1.13493
DILUPBiCG:  Solving for omega, Initial residual = 0.000134958, Final residual = 6.73729e-06, No Iterations 1
DILUPBiCG:  Solving for k, Initial residual = 0.00605135, Final residual = 0.000116472, No Iterations 1
ExecutionTime = 30.58 s  ClockTime = 173 s

Time = 74

DILUPBiCG:  Solving for Ux, Initial residual = 0.0158346, Final residual = 0.000125861, No Iterations 1
DILUPBiCG:  Solving for Uy, Initial residual = 0.00794308, Final residual = 1.68793e-05, No Iterations 1
DILUPBiCG:  Solving for Uz, Initial residual = 0.0101244, Final residual = 4.82004e-05, No Iterations 1
DILUPBiCG:  Solving for h, Initial residual = 0.00297257, Final residual = 4.4542e-05, No Iterations 1
GAMG:  Solving for p_rgh, Initial residual = 0.00763252, Final residual = 2.0785e-05, No Iterations 2
time step continuity errors : sum local = 0.00236954, global = -3.87933e-17, cumulative = 7.30076e-16
rho max/min : 1.21246 1.13496
DILUPBiCG:  Solving for omega, Initial residual = 0.000130357, Final residual = 9.77164e-06, No Iterations 1
DILUPBiCG:  Solving for k, Initial residual = 0.00595496, Final residual = 0.000114398, No Iterations 1
ExecutionTime = 30.96 s  ClockTime = 174 s

Time = 75

DILUPBiCG:  Solving for Ux, Initial residual = 0.0154116, Final residual = 0.000123884, No Iterations 1
DILUPBiCG:  Solving for Uy, Initial residual = 0.00789265, Final residual = 1.69002e-05, No Iterations 1
DILUPBiCG:  Solving for Uz, Initial residual = 0.0100162, Final residual = 4.92734e-05, No Iterations 1
DILUPBiCG:  Solving for h, Initial residual = 0.00294946, Final residual = 9.61621e-05, No Iterations 1
GAMG:  Solving for p_rgh, Initial residual = 0.00769111, Final residual = 1.92785e-05, No Iterations 2
time step continuity errors : sum local = 0.00219761, global = 2.34559e-17, cumulative = 7.53532e-16
rho max/min : 1.21249 1.13498
DILUPBiCG:  Solving for omega, Initial residual = 0.000129429, Final residual = 6.34686e-06, No Iterations 1
DILUPBiCG:  Solving for k, Initial residual = 0.00586353, Final residual = 0.000113011, No Iterations 1
ExecutionTime = 31.33 s  ClockTime = 174 s

Time = 76

DILUPBiCG:  Solving for Ux, Initial residual = 0.0156475, Final residual = 0.000152887, No Iterations 1
DILUPBiCG:  Solving for Uy, Initial residual = 0.0077449, Final residual = 1.66757e-05, No Iterations 1
DILUPBiCG:  Solving for Uz, Initial residual = 0.0100174, Final residual = 5.07272e-05, No Iterations 1
DILUPBiCG:  Solving for h, Initial residual = 0.00292253, Final residual = 3.87395e-05, No Iterations 1
GAMG:  Solving for p_rgh, Initial residual = 0.00742919, Final residual = 2.86392e-05, No Iterations 2
time step continuity errors : sum local = 0.00322443, global = 2.93352e-17, cumulative = 7.82867e-16
rho max/min : 1.21251 1.13501
DILUPBiCG:  Solving for omega, Initial residual = 0.000127776, Final residual = 9.61405e-06, No Iterations 1
DILUPBiCG:  Solving for k, Initial residual = 0.00580975, Final residual = 0.000112702, No Iterations 1
ExecutionTime = 31.72 s  ClockTime = 175 s

Time = 77

DILUPBiCG:  Solving for Ux, Initial residual = 0.0189162, Final residual = 0.000158504, No Iterations 1
DILUPBiCG:  Solving for Uy, Initial residual = 0.00740625, Final residual = 1.61732e-05, No Iterations 1
DILUPBiCG:  Solving for Uz, Initial residual = 0.0102741, Final residual = 5.08098e-05, No Iterations 1
DILUPBiCG:  Solving for h, Initial residual = 0.00289255, Final residual = 1.35896e-05, No Iterations 1
GAMG:  Solving for p_rgh, Initial residual = 0.00728791, Final residual = 6.1683e-05, No Iterations 1
time step continuity errors : sum local = 0.00689517, global = 5.11725e-17, cumulative = 8.3404e-16
rho max/min : 1.21254 1.13503
DILUPBiCG:  Solving for omega, Initial residual = 0.000131714, Final residual = 5.91191e-06, No Iterations 1
DILUPBiCG:  Solving for k, Initial residual = 0.00570942, Final residual = 0.000110306, No Iterations 1
ExecutionTime = 32.12 s  ClockTime = 175 s

Time = 78

DILUPBiCG:  Solving for Ux, Initial residual = 0.0261211, Final residual = 9.89789e-05, No Iterations 1
DILUPBiCG:  Solving for Uy, Initial residual = 0.00739733, Final residual = 1.63276e-05, No Iterations 1
DILUPBiCG:  Solving for Uz, Initial residual = 0.0104163, Final residual = 5.63697e-05, No Iterations 1
DILUPBiCG:  Solving for h, Initial residual = 0.00290482, Final residual = 1.07136e-05, No Iterations 1
GAMG:  Solving for p_rgh, Initial residual = 0.00741187, Final residual = 2.53194e-05, No Iterations 2
time step continuity errors : sum local = 0.002835, global = -8.70348e-18, cumulative = 8.25336e-16
rho max/min : 1.21257 1.13505
DILUPBiCG:  Solving for omega, Initial residual = 0.000134636, Final residual = 8.53237e-06, No Iterations 1
DILUPBiCG:  Solving for k, Initial residual = 0.00570854, Final residual = 0.000111285, No Iterations 1
ExecutionTime = 32.52 s  ClockTime = 175 s

Time = 79

DILUPBiCG:  Solving for Ux, Initial residual = 0.0166627, Final residual = 0.000178209, No Iterations 1
DILUPBiCG:  Solving for Uy, Initial residual = 0.0070969, Final residual = 1.59579e-05, No Iterations 1
DILUPBiCG:  Solving for Uz, Initial residual = 0.0103531, Final residual = 5.35335e-05, No Iterations 1
DILUPBiCG:  Solving for h, Initial residual = 0.0028533, Final residual = 1.83796e-05, No Iterations 1
GAMG:  Solving for p_rgh, Initial residual = 0.007287, Final residual = 4.8233e-05, No Iterations 2
time step continuity errors : sum local = 0.00529512, global = -3.26731e-17, cumulative = 7.92663e-16
rho max/min : 1.21259 1.13508
DILUPBiCG:  Solving for omega, Initial residual = 0.000129262, Final residual = 5.65734e-06, No Iterations 1
DILUPBiCG:  Solving for k, Initial residual = 0.00580031, Final residual = 0.000114715, No Iterations 1
ExecutionTime = 32.92 s  ClockTime = 176 s

Time = 80

DILUPBiCG:  Solving for Ux, Initial residual = 0.0250076, Final residual = 0.000155399, No Iterations 1
DILUPBiCG:  Solving for Uy, Initial residual = 0.00668278, Final residual = 1.64715e-05, No Iterations 1
DILUPBiCG:  Solving for Uz, Initial residual = 0.0109596, Final residual = 5.54079e-05, No Iterations 1
DILUPBiCG:  Solving for h, Initial residual = 0.00282183, Final residual = 1.1787e-05, No Iterations 1
GAMG:  Solving for p_rgh, Initial residual = 0.00716386, Final residual = 5.20694e-05, No Iterations 1
time step continuity errors : sum local = 0.00567136, global = -1.34817e-17, cumulative = 7.79181e-16
rho max/min : 1.21261 1.1351
DILUPBiCG:  Solving for omega, Initial residual = 0.000133056, Final residual = 9.46711e-06, No Iterations 1
DILUPBiCG:  Solving for k, Initial residual = 0.00580846, Final residual = 0.00011527, No Iterations 1
ExecutionTime = 33.28 s  ClockTime = 176 s

Time = 81

DILUPBiCG:  Solving for Ux, Initial residual = 0.0239691, Final residual = 9.13371e-05, No Iterations 1
DILUPBiCG:  Solving for Uy, Initial residual = 0.00662719, Final residual = 1.63905e-05, No Iterations 1
DILUPBiCG:  Solving for Uz, Initial residual = 0.0108478, Final residual = 6.11419e-05, No Iterations 1
DILUPBiCG:  Solving for h, Initial residual = 0.00283483, Final residual = 1.10096e-05, No Iterations 1
GAMG:  Solving for p_rgh, Initial residual = 0.00728822, Final residual = 1.79842e-05, No Iterations 2
time step continuity errors : sum local = 0.00195752, global = 3.08303e-17, cumulative = 8.10012e-16
rho max/min : 1.21264 1.13512
DILUPBiCG:  Solving for omega, Initial residual = 0.0001341, Final residual = 6.61915e-06, No Iterations 1
DILUPBiCG:  Solving for k, Initial residual = 0.00581401, Final residual = 0.000114947, No Iterations 1
ExecutionTime = 33.69 s  ClockTime = 176 s

Time = 82

DILUPBiCG:  Solving for Ux, Initial residual = 0.0188433, Final residual = 0.000123646, No Iterations 1
DILUPBiCG:  Solving for Uy, Initial residual = 0.00650497, Final residual = 1.61401e-05, No Iterations 1
DILUPBiCG:  Solving for Uz, Initial residual = 0.0106971, Final residual = 5.89127e-05, No Iterations 1
DILUPBiCG:  Solving for h, Initial residual = 0.00279846, Final residual = 4.76717e-05, No Iterations 1
GAMG:  Solving for p_rgh, Initial residual = 0.00714349, Final residual = 2.05758e-05, No Iterations 2
time step continuity errors : sum local = 0.00222118, global = -2.63998e-17, cumulative = 7.83612e-16
rho max/min : 1.21266 1.13515
DILUPBiCG:  Solving for omega, Initial residual = 0.000126236, Final residual = 8.64304e-06, No Iterations 1
DILUPBiCG:  Solving for k, Initial residual = 0.00579795, Final residual = 0.000115567, No Iterations 1
ExecutionTime = 34.15 s  ClockTime = 177 s

Time = 83

DILUPBiCG:  Solving for Ux, Initial residual = 0.0142166, Final residual = 0.000232113, No Iterations 1
DILUPBiCG:  Solving for Uy, Initial residual = 0.00640984, Final residual = 1.60484e-05, No Iterations 1
DILUPBiCG:  Solving for Uz, Initial residual = 0.0106081, Final residual = 5.80417e-05, No Iterations 1
DILUPBiCG:  Solving for h, Initial residual = 0.00278142, Final residual = 0.000111456, No Iterations 1
GAMG:  Solving for p_rgh, Initial residual = 0.00691845, Final residual = 1.98034e-05, No Iterations 2
time step continuity errors : sum local = 0.0021282, global = -4.56226e-17, cumulative = 7.37989e-16
rho max/min : 1.21269 1.13517
DILUPBiCG:  Solving for omega, Initial residual = 0.000127238, Final residual = 5.64367e-06, No Iterations 1
DILUPBiCG:  Solving for k, Initial residual = 0.00576304, Final residual = 0.000114954, No Iterations 1
ExecutionTime = 34.54 s  ClockTime = 177 s

Time = 84

DILUPBiCG:  Solving for Ux, Initial residual = 0.0146741, Final residual = 0.000188068, No Iterations 1
DILUPBiCG:  Solving for Uy, Initial residual = 0.00633355, Final residual = 1.595e-05, No Iterations 1
DILUPBiCG:  Solving for Uz, Initial residual = 0.0105808, Final residual = 5.80977e-05, No Iterations 1
DILUPBiCG:  Solving for h, Initial residual = 0.00276172, Final residual = 4.56385e-05, No Iterations 1
GAMG:  Solving for p_rgh, Initial residual = 0.00692917, Final residual = 1.96871e-05, No Iterations 2
time step continuity errors : sum local = 0.00210242, global = -4.72337e-17, cumulative = 6.90755e-16
rho max/min : 1.21271 1.13519
DILUPBiCG:  Solving for omega, Initial residual = 0.000124253, Final residual = 8.65277e-06, No Iterations 1
DILUPBiCG:  Solving for k, Initial residual = 0.00572413, Final residual = 0.000114607, No Iterations 1
ExecutionTime = 34.94 s  ClockTime = 178 s

Time = 85

DILUPBiCG:  Solving for Ux, Initial residual = 0.0141122, Final residual = 0.000167497, No Iterations 1
DILUPBiCG:  Solving for Uy, Initial residual = 0.00627322, Final residual = 1.58567e-05, No Iterations 1
DILUPBiCG:  Solving for Uz, Initial residual = 0.0105953, Final residual = 5.88912e-05, No Iterations 1
DILUPBiCG:  Solving for h, Initial residual = 0.0027423, Final residual = 3.59324e-05, No Iterations 1
GAMG:  Solving for p_rgh, Initial residual = 0.00700036, Final residual = 2.07134e-05, No Iterations 2
time step continuity errors : sum local = 0.00219286, global = 7.54973e-17, cumulative = 7.66253e-16
rho max/min : 1.21273 1.13521
DILUPBiCG:  Solving for omega, Initial residual = 0.000123657, Final residual = 5.49095e-06, No Iterations 1
DILUPBiCG:  Solving for k, Initial residual = 0.00566663, Final residual = 0.000113588, No Iterations 1
ExecutionTime = 35.31 s  ClockTime = 178 s

Time = 86

DILUPBiCG:  Solving for Ux, Initial residual = 0.014249, Final residual = 0.000136221, No Iterations 1
DILUPBiCG:  Solving for Uy, Initial residual = 0.00622721, Final residual = 1.57855e-05, No Iterations 1
DILUPBiCG:  Solving for Uz, Initial residual = 0.0106315, Final residual = 5.948e-05, No Iterations 1
[...]
GAMG:  Solving for p_rgh, Initial residual = 0.000753549, Final residual = 2.35473e-06, No Iterations 2
time step continuity errors : sum local = 0.000256975, global = 1.00861e-16, cumulative = -1.0017e-15
rho max/min : 1.21936 1.14141
DILUPBiCG:  Solving for omega, Initial residual = 1.31417e-05, Final residual = 1.0427e-06, No Iterations 1
DILUPBiCG:  Solving for k, Initial residual = 0.000396034, Final residual = 1.77924e-05, No Iterations 1
ExecutionTime = 411.52 s  ClockTime = 555 s

Time = 980

DILUPBiCG:  Solving for Ux, Initial residual = 0.00462785, Final residual = 3.30638e-05, No Iterations 1
DILUPBiCG:  Solving for Uy, Initial residual = 0.000381926, Final residual = 3.13992e-06, No Iterations 1
DILUPBiCG:  Solving for Uz, Initial residual = 0.00400545, Final residual = 1.64587e-05, No Iterations 1
DILUPBiCG:  Solving for h, Initial residual = 0.000523131, Final residual = 2.29652e-06, No Iterations 1
GAMG:  Solving for p_rgh, Initial residual = 0.000756478, Final residual = 2.35803e-06, No Iterations 2
time step continuity errors : sum local = 0.000257392, global = 1.16272e-16, cumulative = -8.85428e-16
rho max/min : 1.21936 1.14142
DILUPBiCG:  Solving for omega, Initial residual = 1.30325e-05, Final residual = 6.25955e-07, No Iterations 1
DILUPBiCG:  Solving for k, Initial residual = 0.000395326, Final residual = 1.83128e-05, No Iterations 1
ExecutionTime = 411.9 s  ClockTime = 555 s

Time = 981

DILUPBiCG:  Solving for Ux, Initial residual = 0.00461077, Final residual = 3.26084e-05, No Iterations 1
DILUPBiCG:  Solving for Uy, Initial residual = 0.000381648, Final residual = 3.14892e-06, No Iterations 1
DILUPBiCG:  Solving for Uz, Initial residual = 0.00401077, Final residual = 1.64139e-05, No Iterations 1
DILUPBiCG:  Solving for h, Initial residual = 0.000522991, Final residual = 2.28942e-06, No Iterations 1
GAMG:  Solving for p_rgh, Initial residual = 0.000758023, Final residual = 2.3794e-06, No Iterations 2
time step continuity errors : sum local = 0.000259517, global = -9.00629e-17, cumulative = -9.75491e-16
rho max/min : 1.21937 1.14142
DILUPBiCG:  Solving for omega, Initial residual = 1.30593e-05, Final residual = 1.10712e-06, No Iterations 1
DILUPBiCG:  Solving for k, Initial residual = 0.000394392, Final residual = 1.80153e-05, No Iterations 1
ExecutionTime = 412.26 s  ClockTime = 556 s

Time = 982

DILUPBiCG:  Solving for Ux, Initial residual = 0.00463123, Final residual = 3.31095e-05, No Iterations 1
DILUPBiCG:  Solving for Uy, Initial residual = 0.00038173, Final residual = 3.17999e-06, No Iterations 1
DILUPBiCG:  Solving for Uz, Initial residual = 0.00401541, Final residual = 1.6324e-05, No Iterations 1
DILUPBiCG:  Solving for h, Initial residual = 0.000522773, Final residual = 2.26592e-06, No Iterations 1
GAMG:  Solving for p_rgh, Initial residual = 0.000758677, Final residual = 2.3893e-06, No Iterations 2
time step continuity errors : sum local = 0.000260375, global = 2.23382e-17, cumulative = -9.53153e-16
rho max/min : 1.21937 1.14143
DILUPBiCG:  Solving for omega, Initial residual = 1.30366e-05, Final residual = 7.44113e-07, No Iterations 1
DILUPBiCG:  Solving for k, Initial residual = 0.000393621, Final residual = 1.83278e-05, No Iterations 1
ExecutionTime = 412.65 s  ClockTime = 556 s

Time = 983

DILUPBiCG:  Solving for Ux, Initial residual = 0.00462021, Final residual = 3.30105e-05, No Iterations 1
DILUPBiCG:  Solving for Uy, Initial residual = 0.000381293, Final residual = 3.26491e-06, No Iterations 1
DILUPBiCG:  Solving for Uz, Initial residual = 0.00401873, Final residual = 1.64052e-05, No Iterations 1
DILUPBiCG:  Solving for h, Initial residual = 0.000522555, Final residual = 2.27792e-06, No Iterations 1
GAMG:  Solving for p_rgh, Initial residual = 0.000758798, Final residual = 2.39314e-06, No Iterations 2
time step continuity errors : sum local = 0.000260616, global = 1.39947e-17, cumulative = -9.39158e-16
rho max/min : 1.21938 1.14143
DILUPBiCG:  Solving for omega, Initial residual = 1.30345e-05, Final residual = 1.05038e-06, No Iterations 1
DILUPBiCG:  Solving for k, Initial residual = 0.000393023, Final residual = 1.79978e-05, No Iterations 1
ExecutionTime = 413.04 s  ClockTime = 557 s

Time = 984

DILUPBiCG:  Solving for Ux, Initial residual = 0.00462418, Final residual = 3.41714e-05, No Iterations 1
DILUPBiCG:  Solving for Uy, Initial residual = 0.000381262, Final residual = 3.29757e-06, No Iterations 1
DILUPBiCG:  Solving for Uz, Initial residual = 0.0040202, Final residual = 1.63347e-05, No Iterations 1
DILUPBiCG:  Solving for h, Initial residual = 0.00052217, Final residual = 2.26918e-06, No Iterations 1
GAMG:  Solving for p_rgh, Initial residual = 0.000756451, Final residual = 2.38869e-06, No Iterations 2
time step continuity errors : sum local = 0.000260038, global = -1.38074e-17, cumulative = -9.52965e-16
rho max/min : 1.21938 1.14144
DILUPBiCG:  Solving for omega, Initial residual = 1.30464e-05, Final residual = 7.8114e-07, No Iterations 1
DILUPBiCG:  Solving for k, Initial residual = 0.000391928, Final residual = 1.85311e-05, No Iterations 1
ExecutionTime = 413.47 s  ClockTime = 557 s

Time = 985

DILUPBiCG:  Solving for Ux, Initial residual = 0.0046163, Final residual = 3.43926e-05, No Iterations 1
DILUPBiCG:  Solving for Uy, Initial residual = 0.000380687, Final residual = 3.27355e-06, No Iterations 1
DILUPBiCG:  Solving for Uz, Initial residual = 0.00402038, Final residual = 1.62826e-05, No Iterations 1
DILUPBiCG:  Solving for h, Initial residual = 0.000521617, Final residual = 2.27394e-06, No Iterations 1
GAMG:  Solving for p_rgh, Initial residual = 0.000756497, Final residual = 2.37675e-06, No Iterations 2
time step continuity errors : sum local = 0.000258619, global = 7.70132e-17, cumulative = -8.75952e-16
rho max/min : 1.21939 1.14144
DILUPBiCG:  Solving for omega, Initial residual = 1.29346e-05, Final residual = 2.48632e-08, No Iterations 2
DILUPBiCG:  Solving for k, Initial residual = 0.000391596, Final residual = 1.82909e-05, No Iterations 1
ExecutionTime = 413.9 s  ClockTime = 557 s

Time = 986

DILUPBiCG:  Solving for Ux, Initial residual = 0.00460012, Final residual = 3.32862e-05, No Iterations 1
DILUPBiCG:  Solving for Uy, Initial residual = 0.000380186, Final residual = 3.28288e-06, No Iterations 1
DILUPBiCG:  Solving for Uz, Initial residual = 0.00402062, Final residual = 1.62463e-05, No Iterations 1
DILUPBiCG:  Solving for h, Initial residual = 0.000521154, Final residual = 2.27495e-06, No Iterations 1
GAMG:  Solving for p_rgh, Initial residual = 0.000757831, Final residual = 2.37059e-06, No Iterations 2
time step continuity errors : sum local = 0.000257827, global = -1.57323e-16, cumulative = -1.03328e-15
rho max/min : 1.21939 1.14145
DILUPBiCG:  Solving for omega, Initial residual = 1.30411e-05, Final residual = 4.98149e-07, No Iterations 1
DILUPBiCG:  Solving for k, Initial residual = 0.000390885, Final residual = 1.87998e-05, No Iterations 1
ExecutionTime = 414.29 s  ClockTime = 558 s

Time = 987

DILUPBiCG:  Solving for Ux, Initial residual = 0.00460573, Final residual = 3.28327e-05, No Iterations 1
DILUPBiCG:  Solving for Uy, Initial residual = 0.000379704, Final residual = 3.29775e-06, No Iterations 1
DILUPBiCG:  Solving for Uz, Initial residual = 0.0040257, Final residual = 1.62317e-05, No Iterations 1
DILUPBiCG:  Solving for h, Initial residual = 0.00052067, Final residual = 2.28231e-06, No Iterations 1
GAMG:  Solving for p_rgh, Initial residual = 0.000758737, Final residual = 2.38088e-06, No Iterations 2
time step continuity errors : sum local = 0.000258837, global = -8.03265e-17, cumulative = -1.1136e-15
rho max/min : 1.2194 1.14145
DILUPBiCG:  Solving for omega, Initial residual = 1.29557e-05, Final residual = 2.54661e-08, No Iterations 2
DILUPBiCG:  Solving for k, Initial residual = 0.000390317, Final residual = 1.81522e-05, No Iterations 1
ExecutionTime = 414.69 s  ClockTime = 558 s

Time = 988

DILUPBiCG:  Solving for Ux, Initial residual = 0.00461662, Final residual = 3.41827e-05, No Iterations 1
DILUPBiCG:  Solving for Uy, Initial residual = 0.000379802, Final residual = 3.35055e-06, No Iterations 1
DILUPBiCG:  Solving for Uz, Initial residual = 0.00403438, Final residual = 1.62219e-05, No Iterations 1
DILUPBiCG:  Solving for h, Initial residual = 0.000520388, Final residual = 2.28766e-06, No Iterations 1
GAMG:  Solving for p_rgh, Initial residual = 0.000759709, Final residual = 2.39247e-06, No Iterations 2
time step continuity errors : sum local = 0.00025993, global = 1.53482e-16, cumulative = -9.6012e-16
rho max/min : 1.2194 1.14146
DILUPBiCG:  Solving for omega, Initial residual = 1.30511e-05, Final residual = 4.94455e-07, No Iterations 1
DILUPBiCG:  Solving for k, Initial residual = 0.000389989, Final residual = 1.86341e-05, No Iterations 1
ExecutionTime = 415.06 s  ClockTime = 559 s

Time = 989

DILUPBiCG:  Solving for Ux, Initial residual = 0.00460208, Final residual = 3.4449e-05, No Iterations 1
DILUPBiCG:  Solving for Uy, Initial residual = 0.000379406, Final residual = 3.3377e-06, No Iterations 1
DILUPBiCG:  Solving for Uz, Initial residual = 0.00404244, Final residual = 1.62278e-05, No Iterations 1
DILUPBiCG:  Solving for h, Initial residual = 0.000519936, Final residual = 2.29996e-06, No Iterations 1
GAMG:  Solving for p_rgh, Initial residual = 0.000758089, Final residual = 2.3962e-06, No Iterations 2
time step continuity errors : sum local = 0.000260419, global = 1.11414e-16, cumulative = -8.48706e-16
rho max/min : 1.21941 1.14146
DILUPBiCG:  Solving for omega, Initial residual = 1.29803e-05, Final residual = 2.58277e-08, No Iterations 2
DILUPBiCG:  Solving for k, Initial residual = 0.000389479, Final residual = 1.82367e-05, No Iterations 1
ExecutionTime = 415.43 s  ClockTime = 559 s

Time = 990

DILUPBiCG:  Solving for Ux, Initial residual = 0.00459798, Final residual = 3.43476e-05, No Iterations 1
DILUPBiCG:  Solving for Uy, Initial residual = 0.000379285, Final residual = 3.3695e-06, No Iterations 1
DILUPBiCG:  Solving for Uz, Initial residual = 0.00404488, Final residual = 1.62018e-05, No Iterations 1
DILUPBiCG:  Solving for h, Initial residual = 0.000519791, Final residual = 2.30165e-06, No Iterations 1
GAMG:  Solving for p_rgh, Initial residual = 0.000758894, Final residual = 2.38364e-06, No Iterations 2
time step continuity errors : sum local = 0.000259307, global = 2.29803e-16, cumulative = -6.18903e-16
rho max/min : 1.21941 1.14147
DILUPBiCG:  Solving for omega, Initial residual = 1.30416e-05, Final residual = 4.90287e-07, No Iterations 1
DILUPBiCG:  Solving for k, Initial residual = 0.000389136, Final residual = 1.8747e-05, No Iterations 1
ExecutionTime = 415.85 s  ClockTime = 559 s

Time = 991

DILUPBiCG:  Solving for Ux, Initial residual = 0.00457149, Final residual = 3.38445e-05, No Iterations 1
DILUPBiCG:  Solving for Uy, Initial residual = 0.000378672, Final residual = 3.39655e-06, No Iterations 1
DILUPBiCG:  Solving for Uz, Initial residual = 0.00404719, Final residual = 1.61952e-05, No Iterations 1
DILUPBiCG:  Solving for h, Initial residual = 0.000519627, Final residual = 2.30213e-06, No Iterations 1
GAMG:  Solving for p_rgh, Initial residual = 0.000762845, Final residual = 2.36236e-06, No Iterations 2
time step continuity errors : sum local = 0.000257247, global = 1.01573e-17, cumulative = -6.08746e-16
rho max/min : 1.21942 1.14147
DILUPBiCG:  Solving for omega, Initial residual = 1.30298e-05, Final residual = 2.61858e-08, No Iterations 2
DILUPBiCG:  Solving for k, Initial residual = 0.000388772, Final residual = 1.80787e-05, No Iterations 1
ExecutionTime = 416.25 s  ClockTime = 560 s

Time = 992

DILUPBiCG:  Solving for Ux, Initial residual = 0.00456087, Final residual = 3.30345e-05, No Iterations 1
DILUPBiCG:  Solving for Uy, Initial residual = 0.000378487, Final residual = 3.41701e-06, No Iterations 1
DILUPBiCG:  Solving for Uz, Initial residual = 0.00404742, Final residual = 1.62383e-05, No Iterations 1
DILUPBiCG:  Solving for h, Initial residual = 0.000519575, Final residual = 2.2827e-06, No Iterations 1
GAMG:  Solving for p_rgh, Initial residual = 0.000764102, Final residual = 2.3423e-06, No Iterations 2
time step continuity errors : sum local = 0.000255068, global = 2.65308e-17, cumulative = -5.82215e-16
rho max/min : 1.21942 1.14147
DILUPBiCG:  Solving for omega, Initial residual = 1.30308e-05, Final residual = 4.96892e-07, No Iterations 1
DILUPBiCG:  Solving for k, Initial residual = 0.000388288, Final residual = 1.8949e-05, No Iterations 1
ExecutionTime = 416.63 s  ClockTime = 560 s

Time = 993

DILUPBiCG:  Solving for Ux, Initial residual = 0.004549, Final residual = 3.25232e-05, No Iterations 1
DILUPBiCG:  Solving for Uy, Initial residual = 0.000377763, Final residual = 3.44689e-06, No Iterations 1
DILUPBiCG:  Solving for Uz, Initial residual = 0.00404806, Final residual = 1.62292e-05, No Iterations 1
DILUPBiCG:  Solving for h, Initial residual = 0.000519201, Final residual = 2.2783e-06, No Iterations 1
GAMG:  Solving for p_rgh, Initial residual = 0.000765534, Final residual = 2.33252e-06, No Iterations 2
time step continuity errors : sum local = 0.000254086, global = 6.11431e-17, cumulative = -5.21072e-16
rho max/min : 1.21943 1.14148
DILUPBiCG:  Solving for omega, Initial residual = 1.30706e-05, Final residual = 2.6098e-08, No Iterations 2
DILUPBiCG:  Solving for k, Initial residual = 0.000387825, Final residual = 1.82484e-05, No Iterations 1
ExecutionTime = 417.02 s  ClockTime = 561 s

Time = 994

DILUPBiCG:  Solving for Ux, Initial residual = 0.00455585, Final residual = 3.30968e-05, No Iterations 1
DILUPBiCG:  Solving for Uy, Initial residual = 0.000377625, Final residual = 3.51017e-06, No Iterations 1
DILUPBiCG:  Solving for Uz, Initial residual = 0.00405199, Final residual = 1.62529e-05, No Iterations 1
DILUPBiCG:  Solving for h, Initial residual = 0.000518789, Final residual = 2.28687e-06, No Iterations 1
GAMG:  Solving for p_rgh, Initial residual = 0.00076611, Final residual = 2.33891e-06, No Iterations 2
time step continuity errors : sum local = 0.00025486, global = 2.31136e-17, cumulative = -4.97959e-16
rho max/min : 1.21943 1.14148
DILUPBiCG:  Solving for omega, Initial residual = 1.30068e-05, Final residual = 5.50183e-07, No Iterations 1
DILUPBiCG:  Solving for k, Initial residual = 0.000387201, Final residual = 1.90333e-05, No Iterations 1
ExecutionTime = 417.39 s  ClockTime = 561 s

Time = 995

DILUPBiCG:  Solving for Ux, Initial residual = 0.00455143, Final residual = 3.26416e-05, No Iterations 1
DILUPBiCG:  Solving for Uy, Initial residual = 0.000377073, Final residual = 3.5801e-06, No Iterations 1
DILUPBiCG:  Solving for Uz, Initial residual = 0.00405682, Final residual = 1.62315e-05, No Iterations 1
DILUPBiCG:  Solving for h, Initial residual = 0.000518311, Final residual = 2.29399e-06, No Iterations 1
GAMG:  Solving for p_rgh, Initial residual = 0.000767166, Final residual = 2.34394e-06, No Iterations 2
time step continuity errors : sum local = 0.000255287, global = -1.12935e-17, cumulative = -5.09252e-16
rho max/min : 1.21944 1.14149
DILUPBiCG:  Solving for omega, Initial residual = 1.30211e-05, Final residual = 2.62802e-08, No Iterations 2
DILUPBiCG:  Solving for k, Initial residual = 0.000386558, Final residual = 1.85885e-05, No Iterations 1
ExecutionTime = 417.76 s  ClockTime = 561 s

Time = 996

DILUPBiCG:  Solving for Ux, Initial residual = 0.00452685, Final residual = 3.26066e-05, No Iterations 1
DILUPBiCG:  Solving for Uy, Initial residual = 0.000376703, Final residual = 3.55254e-06, No Iterations 1
DILUPBiCG:  Solving for Uz, Initial residual = 0.00405469, Final residual = 1.62554e-05, No Iterations 1
DILUPBiCG:  Solving for h, Initial residual = 0.000517702, Final residual = 2.28153e-06, No Iterations 1
GAMG:  Solving for p_rgh, Initial residual = 0.000767137, Final residual = 2.34001e-06, No Iterations 2
time step continuity errors : sum local = 0.000254936, global = -4.33791e-17, cumulative = -5.52631e-16
rho max/min : 1.21944 1.14149
DILUPBiCG:  Solving for omega, Initial residual = 1.29723e-05, Final residual = 7.07549e-07, No Iterations 1
DILUPBiCG:  Solving for k, Initial residual = 0.000386471, Final residual = 1.99812e-05, No Iterations 1
ExecutionTime = 418.12 s  ClockTime = 562 s

Time = 997

DILUPBiCG:  Solving for Ux, Initial residual = 0.00453506, Final residual = 3.12948e-05, No Iterations 1
DILUPBiCG:  Solving for Uy, Initial residual = 0.00037677, Final residual = 3.58102e-06, No Iterations 1
DILUPBiCG:  Solving for Uz, Initial residual = 0.00406093, Final residual = 1.63403e-05, No Iterations 1
DILUPBiCG:  Solving for h, Initial residual = 0.000516987, Final residual = 2.28694e-06, No Iterations 1
GAMG:  Solving for p_rgh, Initial residual = 0.000769409, Final residual = 2.32847e-06, No Iterations 2
time step continuity errors : sum local = 0.000253755, global = 8.48774e-17, cumulative = -4.67754e-16
rho max/min : 1.21945 1.1415
DILUPBiCG:  Solving for omega, Initial residual = 1.30504e-05, Final residual = 2.6163e-08, No Iterations 2
DILUPBiCG:  Solving for k, Initial residual = 0.000385934, Final residual = 1.91701e-05, No Iterations 1
ExecutionTime = 418.48 s  ClockTime = 562 s

Time = 998

DILUPBiCG:  Solving for Ux, Initial residual = 0.0045288, Final residual = 3.19675e-05, No Iterations 1
DILUPBiCG:  Solving for Uy, Initial residual = 0.000376886, Final residual = 3.60409e-06, No Iterations 1
DILUPBiCG:  Solving for Uz, Initial residual = 0.00405795, Final residual = 1.63211e-05, No Iterations 1
DILUPBiCG:  Solving for h, Initial residual = 0.000516741, Final residual = 2.29029e-06, No Iterations 1
GAMG:  Solving for p_rgh, Initial residual = 0.000770762, Final residual = 2.32026e-06, No Iterations 2
time step continuity errors : sum local = 0.000252741, global = 4.38898e-17, cumulative = -4.23864e-16
rho max/min : 1.21945 1.1415
DILUPBiCG:  Solving for omega, Initial residual = 1.3021e-05, Final residual = 1.31197e-09, No Iterations 3
DILUPBiCG:  Solving for k, Initial residual = 0.000385997, Final residual = 2.0304e-05, No Iterations 1
ExecutionTime = 418.85 s  ClockTime = 562 s

Time = 999

DILUPBiCG:  Solving for Ux, Initial residual = 0.00450005, Final residual = 3.18719e-05, No Iterations 1
DILUPBiCG:  Solving for Uy, Initial residual = 0.000375731, Final residual = 3.53689e-06, No Iterations 1
DILUPBiCG:  Solving for Uz, Initial residual = 0.00405647, Final residual = 1.64044e-05, No Iterations 1
DILUPBiCG:  Solving for h, Initial residual = 0.000516475, Final residual = 2.29134e-06, No Iterations 1
GAMG:  Solving for p_rgh, Initial residual = 0.000772451, Final residual = 2.30928e-06, No Iterations 2
time step continuity errors : sum local = 0.000251394, global = -1.1329e-16, cumulative = -5.37154e-16
rho max/min : 1.21946 1.14151
DILUPBiCG:  Solving for omega, Initial residual = 1.28035e-05, Final residual = 2.58278e-08, No Iterations 2
DILUPBiCG:  Solving for k, Initial residual = 0.000385686, Final residual = 1.90685e-05, No Iterations 1
ExecutionTime = 419.21 s  ClockTime = 563 s

Time = 1000

DILUPBiCG:  Solving for Ux, Initial residual = 0.00449634, Final residual = 3.24494e-05, No Iterations 1
DILUPBiCG:  Solving for Uy, Initial residual = 0.000375118, Final residual = 3.56249e-06, No Iterations 1
DILUPBiCG:  Solving for Uz, Initial residual = 0.00405613, Final residual = 1.64839e-05, No Iterations 1
DILUPBiCG:  Solving for h, Initial residual = 0.000516282, Final residual = 2.29238e-06, No Iterations 1
GAMG:  Solving for p_rgh, Initial residual = 0.00077274, Final residual = 2.30683e-06, No Iterations 2
time step continuity errors : sum local = 0.000251368, global = -1.572e-16, cumulative = -6.94353e-16
rho max/min : 1.21947 1.14151
DILUPBiCG:  Solving for omega, Initial residual = 1.29229e-05, Final residual = 5.42804e-07, No Iterations 2
DILUPBiCG:  Solving for k, Initial residual = 0.000385754, Final residual = 2.01693e-05, No Iterations 1
ExecutionTime = 420.28 s  ClockTime = 564 s

End

